data_image0
_chemical_formula_structural       C50H52N16O2Zn4
_chemical_formula_sum              "C50 H52 N16 O2 Zn4"
_cell_length_a       15.703227305435394
_cell_length_b       14.681663829147332
_cell_length_c       15.783446467502712
_cell_angle_alpha    102.9434630944223
_cell_angle_beta     109.34336240001714
_cell_angle_gamma    121.19951767919075

_space_group_name_H-M_alt    "P 1"
_space_group_IT_number       1

loop_
  _space_group_symop_operation_xyz
  'x, y, z'

loop_
  _atom_site_type_symbol
  _atom_site_label
  _atom_site_symmetry_multiplicity
  _atom_site_fract_x
  _atom_site_fract_y
  _atom_site_fract_z
  _atom_site_occupancy
  C   C1        1.0  0.15985377300716413  0.3252551373801823  0.07034129426723722  1.0000
  C   C2        1.0  0.4656460318528913  0.1705736738373391  0.9470804070639217  1.0000
  C   C3        1.0  0.7754534327971425  0.32663738003113707  0.8966604448635707  1.0000
  C   C4        1.0  0.5335574923659719  0.4482270208322489  0.3413356600872177  1.0000
  C   C5        1.0  0.546517018411414  0.8353914179961208  0.9210294191499102  1.0000
  C   C6        1.0  0.5530316271801324  0.4463050584428603  0.7044316557966467  1.0000
  C   C7        1.0  0.631763712324954  0.05131238623832258  0.023524757277272233  1.0000
  C   C8        1.0  0.6409562341902912  0.43689232656854693  0.5956242171043868  1.0000
  C   C9        1.0  0.17905552390472218  0.32790673491778943  0.7540559109240235  1.0000
  C   C10       1.0  0.6112654165112232  0.1437263944485352  0.024731256034058867  1.0000
  C   C11       1.0  0.648210775191643  0.460000003259296  0.5061280676547425  1.0000
  C   C12       1.0  0.5096801599938275  0.9453152677033146  0.8312725285947665  1.0000
  C   C13       1.0  0.5722350519743599  0.5571706896283289  0.6072802922035762  1.0000
  C   C14       1.0  0.41467985270148916  0.8781949287257333  0.9288931674280007  1.0000
  C   C15       1.0  0.42592977275962335  0.3288542330910645  0.5095980846224393  1.0000
  C   C16       1.0  0.5269417534184697  0.925891359741421  0.9261009509402738  1.0000
  C   C17       1.0  0.5481413668778571  0.4398812129287749  0.6063623474087761  1.0000
  C   C18       1.0  0.48576795539153766  0.08007502614888322  0.9355860467188606  1.0000
  C   C19       1.0  0.5406508731121136  0.44525051013940253  0.43781897703645006  1.0000
  C   C20       1.0  0.4735321419136725  0.025664913877470632  0.8321217876222989  1.0000
  C   C21       1.0  0.5493619825418677  0.549684332283519  0.5022191495068782  1.0000
  C   C22       1.0  0.6594481746079808  0.733556452521441  0.25067958797961865  1.0000
  C   C23       1.0  0.8287255712118764  0.5415389569214  0.13381996614337774  1.0000
  C   C24       1.0  0.39686074237214103  0.9730722064636058  0.9436441548944858  1.0000
  C   C25       1.0  0.7243335170662633  0.8557010058729801  0.27065543175165635  1.0000
  C   C26       1.0  0.42882560778059553  0.3228426034215489  0.4115559869267571  1.0000
  C   C27       1.0  0.7946003284905954  0.9689535779728189  0.3643277202438496  1.0000
  C   C28       1.0  0.9890680075070791  0.5624300929182909  0.10931334857694716  1.0000
  C   C29       1.0  0.8322625586871054  0.985120844340656  0.46180294588572207  1.0000
  C   C30       1.0  0.9449112158201272  0.4448553497898969  0.06203581529349839  1.0000
  C   C31       1.0  0.9151111697312189  0.594066352740974  0.10955110337379637  1.0000
  C   C32       1.0  0.9680045597976347  0.11904157984000831  0.6504113548526362  1.0000
  C   C33       1.0  0.9704243618975851  0.2901222072140328  0.029148617946070494  1.0000
  C   C34       1.0  0.9270492809670543  0.10309704692431856  0.5533853843365079  1.0000
  C   C35       1.0  0.01499566378094389  0.40815729474608997  0.06959274971032417  1.0000
  C   C36       1.0  0.4373497765051583  0.41889831429881513  0.2577265332181042  1.0000
  C   C37       1.0  0.37309265195332836  0.15883494243409782  0.952263400772665  1.0000
  C   C38       1.0  0.6481825470674494  0.8484899173367141  0.9436710397532978  1.0000
  C   C39       1.0  0.652089703724705  0.5311035836709479  0.8055276162944905  1.0000
  C   C40       1.0  0.6158962146876875  0.480393096028152  0.311996192940093  1.0000
  C   C41       1.0  0.5439146384318152  0.2929262767127059  0.9726020532677423  1.0000
  C   C42       1.0  0.46264591347669176  0.7141904196145391  0.894608759002942  1.0000
  C   C43       1.0  0.45833836260270294  0.3912213476488021  0.7182769589017965  1.0000
  C   C44       1.0  0.7255767649240354  0.8476938985403422  0.1802967965356075  1.0000
  C   C45       1.0  0.9081472449477203  0.6776057264818646  0.08571456811116458  1.0000
  C   C46       1.0  0.000319905624315906  0.13177284422869937  0.9895069374149867  1.0000
  C   C47       1.0  0.12401264922610984  0.23512627132902972  0.8405315527243502  1.0000
  C   C48       1.0  0.03882600022192409  0.2519261925324727  0.03236711897516645  1.0000
  C   C49       1.0  0.08077702186535857  0.22469142909365317  0.7420341957791122  1.0000
  C   C50       1.0  0.8578194086884139  0.8481496483658763  0.49241295878737673  1.0000
  H   H1        1.0  0.22621756357325754  0.42411497428378914  0.10749677765881674  1.0000
  H   H2        1.0  0.6518057839774728  0.3959277889025189  0.4589842985320445  1.0000
  H   H3        1.0  0.8631489758338374  0.8214108133826983  0.42448300890765017  1.0000
  H   H4        1.0  0.814201107638283  0.7692601859262569  0.5041241055195584  1.0000
  H   H5        1.0  0.8182767433898449  0.30492348055784685  0.8632096884383671  1.0000
  H   H6        1.0  0.7869474484401309  0.40578757211032007  0.8922827257580579  1.0000
  H   H7        1.0  0.6810674511607003  0.24772089550712217  0.8534962108831295  1.0000
  H   H8        1.0  0.6213499705409262  0.18737071253646315  0.09789109934497728  1.0000
  H   H9        1.0  0.6772009613434306  0.21725736484928873  0.01846098124612888  1.0000
  H   H10       1.0  0.729411466695282  0.5527505178849097  0.5364049349264588  1.0000
  H   H11       1.0  0.5924667004232798  0.9881635045812088  0.8327059708330465  1.0000
  H   H12       1.0  0.6640351872607225  0.6367347083343449  0.669729036157534  1.0000
  H   H13       1.0  0.1883907457123613  0.3586517757683654  0.698679903748463  1.0000
  H   H14       1.0  0.5278790757662292  0.09985708982674182  0.8192869891421067  1.0000
  H   H15       1.0  0.619838690860462  0.6364881366275272  0.5119947629809972  1.0000
  H   H16       1.0  0.3380953408188247  0.7925568739552561  0.8564588996398471  1.0000
  H   H17       1.0  0.36007400042517185  0.3371557785680751  0.5094843247550002  1.0000
  H   H18       1.0  0.42152739413702284  0.8554225071479922  0.9913656284904351  1.0000
  H   H19       1.0  0.3994783312285079  0.24437365608174852  0.5121361916539229  1.0000
  H   H20       1.0  0.4085849205689486  0.009316409387665233  0.01930963938870179  1.0000
  H   H21       1.0  0.42862979313174765  0.24909604635143273  0.3758363664346404  1.0000
  H   H22       1.0  0.3063989156584698  0.9302758675895009  0.8852913813849809  1.0000
  H   H23       1.0  0.3494712259778723  0.3017611854878411  0.3534374978997903  1.0000
  H   H24       1.0  0.44233254343469497  0.8558157305358948  0.7606111845895214  1.0000
  H   H25       1.0  0.5162070624610207  0.5684856773767208  0.6270966685907311  1.0000
  H   H26       1.0  0.634816255299832  0.6958776977289818  0.29817147643667863  1.0000
  H   H27       1.0  0.80497876619728  0.4730275447388053  0.15822033869208946  1.0000
  H   H28       1.0  0.3815901952932418  0.9717304020799276  0.7692162944368234  1.0000
  H   H29       1.0  0.6422136641812204  0.03986555104997091  0.0918970357142257  1.0000
  H   H30       1.0  0.4666933756499816  0.5323790886298597  0.4586569450286291  1.0000
  H   H31       1.0  0.973632502586483  0.18021950419060337  0.5407105039076541  1.0000
  H   H32       1.0  0.11025596271824868  0.4826641227563186  0.11238013604903323  1.0000
  H   H33       1.0  0.9161453004822347  0.04071267860555161  0.65985784109796  1.0000
  H   H34       1.0  0.874857917043812  0.2183162075303715  0.9889849767410085  1.0000
  H   H35       1.0  0.6160548662756185  0.34728115428886525  0.5816262840106389  1.0000
  H   H36       1.0  0.8324300821166873  0.05200117653527074  0.35790401963021173  1.0000
  H   H37       1.0  0.08458024961399958  0.6349934532595611  0.1516993460189724  1.0000
  H   H38       1.0  0.3518452918522997  0.38557334436315943  0.244775100333392  1.0000
  H   H39       1.0  0.2922275471859023  0.07991764637952074  0.9382640085079571  1.0000
  H   H40       1.0  0.7358683712280507  0.9282677920073112  0.9691314882661428  1.0000
  H   H41       1.0  0.7449355388960089  0.5944271700171133  0.8321685858022008  1.0000
  H   H42       1.0  0.7042056684373249  0.5105399159882539  0.3530317310971398  1.0000
  H   H43       1.0  0.6283866232263833  0.34322895434090145  0.978998377725226  1.0000
  H   H44       1.0  0.3713306845215951  0.6632455741955142  0.8725558829060489  1.0000
  H   H45       1.0  0.3644037707311086  0.3191302633130421  0.6616569853998798  1.0000
  H   H46       1.0  0.7658798160362181  0.9200245824465085  0.16173400817589825  1.0000
  H   H47       1.0  0.9581290780813418  0.7383788575754054  0.06158629075636687  1.0000
  H   H48       1.0  0.911504238446085  0.0451506394101032  0.9510012987070126  1.0000
  H   H49       1.0  0.07707242011202435  0.17337847766197725  0.8655252968696558  1.0000
  H   H50       1.0  0.7137889822838729  0.08472715627173953  0.02550177255505299  1.0000
  H   H51       1.0  0.7275337101502828  0.5056942528156088  0.6682492680650114  1.0000
  H   H52       1.0  0.947442491993108  0.9230646594917503  0.5607457554828628  1.0000
  N   N1        1.0  0.18783928498748284  0.25354816160134425  0.04963024750904312  1.0000
  N   N2        1.0  0.3964644759345576  0.2665779704816132  0.9810938036508999  1.0000
  N   N3        1.0  0.4600069099885644  0.43165730303994815  0.1839313607260991  1.0000
  N   N4        1.0  0.6259608647304874  0.7426319131858038  0.9307803485880443  1.0000
  N   N5        1.0  0.6186851458799937  0.5290212904507856  0.8741913854693452  1.0000
  N   N6        1.0  0.5705670299588732  0.4690396008296815  0.21729755596234676  1.0000
  N   N7        1.0  0.5028916250885446  0.35108081043446066  0.9945588101909025  1.0000
  N   N8        1.0  0.2729129208835273  0.3917427600240517  0.8517195094611765  1.0000
  N   N9        1.0  0.5104166046636679  0.6597904702099772  0.9004688762710346  1.0000
  N   N10       1.0  0.49868145841369227  0.44161595647114643  0.8201943009727586  1.0000
  N   N11       1.0  0.6704728452461878  0.731641043273349  0.11483686475003207  1.0000
  N   N12       1.0  0.8236297395718494  0.6738452330534414  0.09420367204852204  1.0000
  N   N13       1.0  0.08895178126235949  0.13253280163833397  0.9990863007276829  1.0000
  N   N14       1.0  0.2390251103115941  0.3341304768061877  0.9055160237608318  1.0000
  N   N15       1.0  0.6288903517588408  0.6610570403939205  0.1575558982905036  1.0000
  N   N16       1.0  0.7742623315301175  0.5887365846945444  0.1244693900190158  1.0000
  O   O1        1.0  0.7859054041796157  0.8832020414089643  0.4757786609087731  1.0000
  O   O2        1.0  0.822624145349387  0.3502297290035798  0.0013366841240412138  1.0000
  Zn  Zn1       1.0  0.4276225809426536  0.49204877028255134  0.8756052467416354  1.0000
  Zn  Zn2       1.0  0.6238409316188438  0.517650822281368  0.12452164980113883  1.0000
  Zn  Zn3       1.0  0.3247061775752442  0.32366744602308734  0.03332587066140044  1.0000
  Zn  Zn4       1.0  0.7045621678456724  0.6838251703609685  0.0074682156503413566  1.0000
