data_image0
_chemical_formula_structural       C50H40N16Zn4
_chemical_formula_sum              "C50 H40 N16 Zn4"
_cell_length_a       14.779634443975153
_cell_length_b       14.806754008767726
_cell_length_c       14.917427270929636
_cell_angle_alpha    102.82941771787901
_cell_angle_beta     112.70085108233694
_cell_angle_gamma    112.36829002840979

_space_group_name_H-M_alt    "P 1"
_space_group_IT_number       1

loop_
  _space_group_symop_operation_xyz
  'x, y, z'

loop_
  _atom_site_type_symbol
  _atom_site_label
  _atom_site_symmetry_multiplicity
  _atom_site_fract_x
  _atom_site_fract_y
  _atom_site_fract_z
  _atom_site_occupancy
  C   C1        1.0  0.09339696071688758  0.7961462280027545  0.18041959381210398  1.0000
  C   C2        1.0  0.9087080994557012  0.03654842855135603  0.2006439374516376  1.0000
  C   C3        1.0  0.002687726077823391  0.15299549160927473  0.6935634884544511  1.0000
  C   C4        1.0  0.9944201867125742  0.30114073193953317  0.09982205992692171  1.0000
  C   C5        1.0  0.7988385016655144  0.7038059305454923  0.701970170786943  1.0000
  C   C6        1.0  0.4499112050197666  0.315706351181568  0.3112780645794828  1.0000
  C   C7        1.0  0.20127582309848446  0.8955160682857581  0.9019831687240227  1.0000
  C   C8        1.0  0.5343690372413474  0.8396205722012622  0.8373976097694323  1.0000
  C   C9        1.0  0.3504254923775746  0.7492105891093813  0.8362621180101328  1.0000
  C   C10       1.0  0.2575916027975182  0.7607209361435635  0.842564405166506  1.0000
  C   C11       1.0  0.4221733055297959  0.8187644704553776  0.8151111428980257  1.0000
  C   C12       1.0  0.26853183715184775  0.8598311203633175  0.871113798734669  1.0000
  C   C13       1.0  0.10803823323963961  0.20613986172782708  0.5999384933248847  1.0000
  C   C14       1.0  0.8904036662952564  0.40091768526878724  0.08012709903005802  1.0000
  C   C15       1.0  0.10855824442919021  0.19715913733305263  0.5054876822298482  1.0000
  C   C16       1.0  0.8912545774508941  0.49677909529472686  0.09030705241725201  1.0000
  C   C17       1.0  0.005787919978160964  0.14569281806519999  0.4052520860814184  1.0000
  C   C18       1.0  0.9944680280178705  0.597823306910584  0.152944681689256  1.0000
  C   C19       1.0  0.9040077136597944  0.1153640033531289  0.4068339131417175  1.0000
  C   C20       1.0  0.09504249234233689  0.5983890171104773  0.21373753225808662  1.0000
  C   C21       1.0  0.9035206185917986  0.12439906785002111  0.5014762191786843  1.0000
  C   C22       1.0  0.0941836820541154  0.5023050642946741  0.20353874927071297  1.0000
  C   C23       1.0  0.9072343698761571  0.09322501202124306  0.7001739305692496  1.0000
  C   C24       1.0  0.0903017768086869  0.2911109541059815  0.11822093610994958  1.0000
  C   C25       1.0  0.0048277711328878654  0.16438337621308113  0.5994531510158936  1.0000
  C   C26       1.0  0.9927424678771217  0.40094254523351214  0.1318806038896199  1.0000
  C   C27       1.0  0.5498693602540216  0.5106743517182865  0.42345504855678945  1.0000
  C   C28       1.0  0.6348240730695521  0.604170243538995  0.5173380874030541  1.0000
  C   C29       1.0  0.7247168732026876  0.6053380608320038  0.5992747487932276  1.0000
  C   C30       1.0  0.5509344356567141  0.4139116555896933  0.4066575674735731  1.0000
  C   C31       1.0  0.7314011594238112  0.5109237832716361  0.5807182640506809  1.0000
  C   C32       1.0  0.6449951520835313  0.41538039634423995  0.4842233044217111  1.0000
  C   C33       1.0  0.826779255298618  0.7134543549095866  0.8065521869672879  1.0000
  C   C34       1.0  0.3860166669133561  0.21189668982393783  0.302140393849804  1.0000
  C   C35       1.0  0.1835575091145999  0.9798215960592244  0.8883477009359384  1.0000
  C   C36       1.0  0.6016706223754581  0.9032113910409121  0.8043076550090972  1.0000
  C   C37       1.0  0.8333191587229863  0.8103294046782425  0.7134567967774006  1.0000
  C   C38       1.0  0.38428171835879243  0.30851832530636597  0.2093459897125882  1.0000
  C   C39       1.0  0.1627347606369725  0.8745160506272852  0.9721902590406373  1.0000
  C   C40       1.0  0.6102064629421164  0.8172995667658257  0.9077960212814064  1.0000
  C   C41       1.0  0.09600926095220062  0.18664459694593918  0.795320720181536  1.0000
  C   C42       1.0  0.9007788787961248  0.19601189029161495  0.02458062681835567  1.0000
  C   C43       1.0  0.9045519532185722  0.7073666891984303  0.08963333938978471  1.0000
  C   C44       1.0  0.09830043653228422  0.12878915874188124  0.2920362381793637  1.0000
  C   C45       1.0  0.9974906725501357  0.6955479059193691  0.14571687500414773  1.0000
  C   C46       1.0  0.004296456444187373  0.11201242858044222  0.3045673472514778  1.0000
  C   C47       1.0  0.8306361979421766  0.5109496270423506  0.6627095749648291  1.0000
  C   C48       1.0  0.6552726365319047  0.3162933163578501  0.4652584874333812  1.0000
  C   C49       1.0  0.36761975228110794  0.6620271270339444  0.8622442411249337  1.0000
  C   C50       1.0  0.15689344466427724  0.6633775727272281  0.8253671720570354  1.0000
  H   H1        1.0  0.1840603661824786  0.8239493532439537  0.2257578726100249  1.0000
  H   H2        1.0  0.8177072189114439  0.9993027519383303  0.17136925635128358  1.0000
  H   H3        1.0  0.3975086978576741  0.8716127692159574  0.7849017912999018  1.0000
  H   H4        1.0  0.34390994045141804  0.9262826929780699  0.8817726833192125  1.0000
  H   H5        1.0  0.18919646731215772  0.24145668419014746  0.6748885047246489  1.0000
  H   H6        1.0  0.8093474334883481  0.32411721949349476  0.025966842066516498  1.0000
  H   H7        1.0  0.19005141454678656  0.22536813032054678  0.5088140423917551  1.0000
  H   H8        1.0  0.8107079168896689  0.49277520989841866  0.04430358426321859  1.0000
  H   H9        1.0  0.8228775502547733  0.07991707878712634  0.3318282740278137  1.0000
  H   H10       1.0  0.17609609522765618  0.6754192855276314  0.2672909366917792  1.0000
  H   H11       1.0  0.8221289393186167  0.09616871330834446  0.49849531737733344  1.0000
  H   H12       1.0  0.17472904297272157  0.5061246360533148  0.24912089587268588  1.0000
  H   H13       1.0  0.4772951106583109  0.5100809551285791  0.36418583857003745  1.0000
  H   H14       1.0  0.6287256378730604  0.6765592890115713  0.531631932209713  1.0000
  H   H15       1.0  0.8164151346216357  0.050187158060794095  0.6398555765027325  1.0000
  H   H16       1.0  0.18115962028758759  0.35150889990212153  0.17022660464138542  1.0000
  H   H17       1.0  0.8149630639250917  0.6516219977696451  0.8360712973943052  1.0000
  H   H18       1.0  0.40311074715181405  0.18053246063338688  0.3621290348795085  1.0000
  H   H19       1.0  0.19905980484802638  0.020549925620919316  0.8390140177079458  1.0000
  H   H20       1.0  0.5785254928602865  0.9396559581627597  0.7501491103339717  1.0000
  H   H21       1.0  0.8302034643715076  0.8418423040376481  0.6538374626364175  1.0000
  H   H22       1.0  0.402168799261105  0.36974309113310266  0.17935101527774583  1.0000
  H   H23       1.0  0.16189997961976127  0.8170915912112803  0.006702800722742129  1.0000
  H   H24       1.0  0.5974550047630487  0.7731577156421992  0.9551616042605104  1.0000
  H   H25       1.0  0.18740299427670234  0.23484181411959773  0.827248379169319  1.0000
  H   H26       1.0  0.8092599926539706  0.16423455780012128  0.9870650871665491  1.0000
  H   H27       1.0  0.8130928418147149  0.6501630988979912  0.048758041085129454  1.0000
  H   H28       1.0  0.1897322718865553  0.18116624486841457  0.3501855775944662  1.0000
  H   H29       1.0  0.8942968779262586  0.5919074790183388  0.7289623912007315  1.0000
  H   H30       1.0  0.8030345467443496  0.4546468255274619  0.6969478366092404  1.0000
  H   H31       1.0  0.8737218076109913  0.4849653053709416  0.6262116359941956  1.0000
  H   H32       1.0  0.6396918642874921  0.27828816471119927  0.5176215153104167  1.0000
  H   H33       1.0  0.5944148339264643  0.2551378626261638  0.38146952477055157  1.0000
  H   H34       1.0  0.7419939732937236  0.3369587447209312  0.48315787881633543  1.0000
  H   H35       1.0  0.28516202943601604  0.5867358368951584  0.8251978625927309  1.0000
  H   H36       1.0  0.41855923402644624  0.6433195652937512  0.8324904068753085  1.0000
  H   H37       1.0  0.41128516987505753  0.6857312418162921  0.9498002403221051  1.0000
  H   H38       1.0  0.12068205710721013  0.5927977118311745  0.7509031268199423  1.0000
  H   H39       1.0  0.1802765975975759  0.6390440576552692  0.8915454226361845  1.0000
  H   H40       1.0  0.08923169947645693  0.6802791871280219  0.8190774365482412  1.0000
  N   N1        1.0  0.059891714039387964  0.8615460767093949  0.14742448767751173  1.0000
  N   N2        1.0  0.944149532313844  0.00974989965740047  0.1337053885033157  1.0000
  N   N3        1.0  0.9412811173285861  0.09161524685349323  0.7972813099019831  1.0000
  N   N4        1.0  0.05544865415507159  0.18918337202665467  0.056674249327961904  1.0000
  N   N5        1.0  0.8712083282667179  0.8169694847447602  0.8730291694226935  1.0000
  N   N6        1.0  0.29045402567734874  0.14884523287099682  0.20324741267302224  1.0000
  N   N7        1.0  0.1395739605743386  0.0065147426897524535  0.9465728240912128  1.0000
  N   N8        1.0  0.7070763333201383  0.9167669348389395  0.8504422256015971  1.0000
  N   N9        1.0  0.8756776401365726  0.876679792254002  0.8159474311224741  1.0000
  N   N10       1.0  0.28959848781479275  0.2091438667375911  0.14533530312574786  1.0000
  N   N11       1.0  0.1281082693009238  0.9428976633036399  0.9992957160939326  1.0000
  N   N12       1.0  0.7121019517462696  0.8632944550721289  0.9150550768236626  1.0000
  N   N13       1.0  0.05907358005347878  0.14986887311584246  0.8566110931432648  1.0000
  N   N14       1.0  0.9390157572908892  0.13076758353916063  0.9992236170637271  1.0000
  N   N15       1.0  0.9421450830415311  0.8060585359640414  0.0907704817656169  1.0000
  N   N16       1.0  0.06060644151681773  0.06636858437458676  0.18986607399394734  1.0000
  Zn  Zn1       1.0  0.14187545143748534  0.004918991338719469  0.14088025970623613  1.0000
  Zn  Zn2       1.0  0.8623713169720731  0.8702513930211354  0.0035580456934454913  1.0000
  Zn  Zn3       1.0  0.8582306043210934  0.004155721830599546  0.8581925995904669  1.0000
  Zn  Zn4       1.0  0.14124977859274437  0.1435246273265279  0.9998553619384439  1.0000
