data_image0
_chemical_formula_structural       C9H18O24Yb2
_chemical_formula_sum              "C9 H18 O24 Yb2"
_cell_length_a       8.711980573088184
_cell_length_b       8.711990300739375
_cell_length_c       8.7119965137077
_cell_angle_alpha    66.38900857801481
_cell_angle_beta     66.38902337968636
_cell_angle_gamma    66.38891647395722

_space_group_name_H-M_alt    "P 1"
_space_group_IT_number       1

loop_
  _space_group_symop_operation_xyz
  'x, y, z'

loop_
  _atom_site_type_symbol
  _atom_site_label
  _atom_site_symmetry_multiplicity
  _atom_site_fract_x
  _atom_site_fract_y
  _atom_site_fract_z
  _atom_site_occupancy
  C   C1        1.0  0.5351373596096707  0.4648625401399968  2.5888300569999375e-06  1.0000
  C   C2        1.0  2.3293555740920294e-06  0.5351378379712985  0.4648635741474081  1.0000
  C   C3        1.0  0.46486338809134514  0.999999806144672  0.5351394852795721  1.0000
  C   C4        1.0  0.5831201868527457  0.3153013588333025  0.9188205961082758  1.0000
  C   C5        1.0  0.9188202495339083  0.583120429805156  0.3153030841965432  1.0000
  C   C6        1.0  0.3153001069762524  0.9188177594522673  0.5831223302024781  1.0000
  C   C7        1.0  0.08117622589533365  0.6847017572892612  0.41688725666949006  1.0000
  C   C8        1.0  0.6847010693419832  0.41688623233824273  0.0811772611195707  1.0000
  C   C9        1.0  0.41688778251597114  0.08117412231158747  0.6847065416379648  1.0000
  H   H1        1.0  0.3237576676498932  0.5515790420334952  0.1926049886474033  1.0000
  H   H2        1.0  0.19260530446950241  0.32375785602500445  0.551579208310599  1.0000
  H   H3        1.0  0.5515787775987561  0.19260518788413356  0.32375845562808087  1.0000
  H   H4        1.0  0.8073968787546092  0.4484216914227163  0.6762433182769454  1.0000
  H   H5        1.0  0.4484221640099548  0.676241727994288  0.8073967652713065  1.0000
  H   H6        1.0  0.6762432188442632  0.8073961370170152  0.4484212432116408  1.0000
  H   H7        1.0  0.23370583749365884  0.2828691455602411  0.8655846699081522  1.0000
  H   H8        1.0  0.8655842917201397  0.2337057103165492  0.2828691025811594  1.0000
  H   H9        1.0  0.2828696017300131  0.8655841989574142  0.2337059708702043  1.0000
  H   H10       1.0  0.13441835902266056  0.7171326216662451  0.7662931637159645  1.0000
  H   H11       1.0  0.7171331665766302  0.7662933892315494  0.134418399510146  1.0000
  H   H12       1.0  0.7662939008621024  0.13441657884337846  0.7171326749604461  1.0000
  H   H13       1.0  0.04836812635912927  0.3738147027802229  0.9782387458881914  1.0000
  H   H14       1.0  0.9782384822157298  0.04836885817886845  0.37381471470062166  1.0000
  H   H15       1.0  0.37381598896456586  0.9782382641854142  0.0483678485760137  1.0000
  H   H16       1.0  0.021763563590447184  0.6261848817891149  0.9516312814171926  1.0000
  H   H17       1.0  0.6261853645936099  0.9516301321153194  0.0217630009614069  1.0000
  H   H18       1.0  0.9516328334192606  0.021762167761181766  0.6261844571782688  1.0000
  O   O1        1.0  0.37141116144240977  0.4627771590089225  0.1235329346413252  1.0000
  O   O2        1.0  0.12353132690695644  0.3714143335532756  0.4627776397412048  1.0000
  O   O3        1.0  0.46277692053566727  0.12353021686026727  0.3714150015977538  1.0000
  O   O4        1.0  0.8764715897049837  0.5372241176576581  0.6285867723521575  1.0000
  O   O5        1.0  0.537224208611178  0.6285880685520697  0.8764714405496362  1.0000
  O   O6        1.0  0.6285864302410571  0.8764712571686177  0.5372254276294726  1.0000
  O   O7        1.0  0.5077082558082395  0.196860998594822  0.0108671505438167  1.0000
  O   O8        1.0  0.010867870882400186  0.5077082714985651  0.19686196015778987  1.0000
  O   O9        1.0  0.19686253114046795  0.010865634836449175  0.5077076115139646  1.0000
  O   O10       1.0  0.9891343197689868  0.8031380307459629  0.4922928449760278  1.0000
  O   O11       1.0  0.8031390193390703  0.49229055572590164  0.9891346149249429  1.0000
  O   O12       1.0  0.4922909703841115  0.9891335104212192  0.8031384775909913  1.0000
  O   O13       1.0  0.6981554015452075  0.31703948875320276  0.7726269512053391  1.0000
  O   O14       1.0  0.7726286850892948  0.6981532143572124  0.3170389820014705  1.0000
  O   O15       1.0  0.31703992708625595  0.7726284151636164  0.6981527264556604  1.0000
  O   O16       1.0  0.22737734199131393  0.6829624684448775  0.30184249187601603  1.0000
  O   O17       1.0  0.6829630828120444  0.30184375878889824  0.22737743926811757  1.0000
  O   O18       1.0  0.301845678437985  0.22737468310651118  0.6829640922307121  1.0000
  O   O19       1.0  0.1722981915917784  0.3197323235293725  0.9750300349760295  1.0000
  O   O20       1.0  0.9750297702842088  0.1722956545315171  0.31973300465154614  1.0000
  O   O21       1.0  0.31973301520638836  0.9750293378812745  0.1722958853629208  1.0000
  O   O22       1.0  0.024971747839245568  0.680267524350768  0.8277045499094413  1.0000
  O   O23       1.0  0.680268947247356  0.827703858706059  0.0249717263832991  1.0000
  O   O24       1.0  0.8277039899829789  0.02497169327600096  0.6802687788305448  1.0000
  Yb  Yb1       1.0  0.23379533209591585  0.23379465225151821  0.2337952756691735  1.0000
  Yb  Yb2       1.0  0.76620654614532  0.766204474903283  0.7662051765970261  1.0000
