data_image0
_chemical_formula_structural       C42H32N20O10Zn4
_chemical_formula_sum              "C42 H32 N20 O10 Zn4"
_cell_length_a       14.887809285003192
_cell_length_b       14.909174351864054
_cell_length_c       15.15796071614238
_cell_angle_alpha    111.46601628385119
_cell_angle_beta     121.83381234169565
_cell_angle_gamma    95.30694525463136

_space_group_name_H-M_alt    "P 1"
_space_group_IT_number       1

loop_
  _space_group_symop_operation_xyz
  'x, y, z'

loop_
  _atom_site_type_symbol
  _atom_site_label
  _atom_site_symmetry_multiplicity
  _atom_site_fract_x
  _atom_site_fract_y
  _atom_site_fract_z
  _atom_site_occupancy
  C   C1        1.0  0.599862180819791  0.015497024996996317  0.3242821658279311  1.0000
  C   C2        1.0  0.6910706626747043  0.2756366038227611  0.67577771342431  1.0000
  C   C3        1.0  0.2980577955816983  0.2255688696206235  0.3911523254686387  1.0000
  C   C4        1.0  0.8346115059373174  0.9067183623515831  0.6090231503883672  1.0000
  C   C5        1.0  0.4051662023370427  0.2905656899262254  0.5858489594626946  1.0000
  C   C6        1.0  0.7047281775129404  0.819116380137153  0.41429199893539687  1.0000
  C   C7        1.0  0.7809374304830926  0.1705995952967996  0.6498257494133101  1.0000
  C   C8        1.0  0.5205720431400208  0.13108399364934092  0.35027590147343796  1.0000
  C   C9        1.0  0.5938181086560517  0.10807338804058013  0.3205378463950907  1.0000
  C   C10       1.0  0.787490454007042  0.2734403412959027  0.6794490352673109  1.0000
  C   C11       1.0  0.3437864721954256  0.31920555361428876  0.496045484578694  1.0000
  C   C12       1.0  0.8232224058508636  0.8471896232625511  0.5041572766132276  1.0000
  C   C13       1.0  0.3775165144379642  0.7323818148396342  0.4068886903155402  1.0000
  C   C14       1.0  0.32579472270751325  0.9705970304575048  0.5932996756444024  1.0000
  C   C15       1.0  0.14522473587246057  0.8271592599678357  0.09734312107651993  1.0000
  C   C16       1.0  0.7290953174162097  0.04725830269425301  0.9022079494515153  1.0000
  C   C17       1.0  0.6102499018029307  0.1275764543180672  0.8960040636769975  1.0000
  C   C18       1.0  0.23148361806568837  0.7143871882947933  0.10395850418759517  1.0000
  C   C19       1.0  0.5011173997635865  0.8169837632736756  0.6039567019569743  1.0000
  C   C20       1.0  0.2128026020731042  0.8969126740611557  0.396218344439127  1.0000
  C   C21       1.0  0.4076790750544745  0.7240018509659336  0.5081693696879056  1.0000
  C   C22       1.0  0.2159644554313688  0.8993080756447538  0.4920898428318522  1.0000
  C   C23       1.0  0.1236790375788176  0.7213122071535166  0.035025520110828275  1.0000
  C   C24       1.0  0.6854946140009942  0.08816063417112478  0.9644741848630289  1.0000
  C   C25       1.0  0.015491794257983008  0.8111736053863012  0.40456488048347694  1.0000
  C   C26       1.0  0.4074593920913119  0.6110751657270583  0.5956067213167059  1.0000
  C   C27       1.0  0.1285404879494366  0.8606173820453478  0.4976931156485946  1.0000
  C   C28       1.0  0.3635402956514754  0.6309718633535297  0.502590975793467  1.0000
  C   C29       1.0  0.9212389847418622  0.7981345530347923  0.40814467001951016  1.0000
  C   C30       1.0  0.3910947096893197  0.5133203756154572  0.5920584583604551  1.0000
  C   C31       1.0  0.9166340979379937  0.8343924567611862  0.5020465462116731  1.0000
  C   C32       1.0  0.33349250629274957  0.4147262255699785  0.49816115062418476  1.0000
  C   C33       1.0  0.8815518262720374  0.3593220696616725  0.7242676706815415  1.0000
  C   C34       1.0  0.6347423338071465  0.15721498031656714  0.2756338326989082  1.0000
  C   C35       1.0  0.8947691668221226  0.4601915005879037  0.7793328807008422  1.0000
  C   C36       1.0  0.6802680017520045  0.11525614004307269  0.22022122938756178  1.0000
  C   C37       1.0  0.01589795907713648  0.6404160340307072  0.9327588264357232  1.0000
  C   C38       1.0  0.7066984217185349  0.08272512244566596  0.06659632808190002  1.0000
  C   C39       1.0  0.9996863398396127  0.5457830721983113  0.8553517181379032  1.0000
  C   C40       1.0  0.6898219795279558  0.14409798466877524  0.14428413985918107  1.0000
  C   C41       1.0  0.4598008508960873  0.11849957703758221  0.9135346256295378  1.0000
  C   C42       1.0  0.20391653834987258  0.5464815614120582  0.08619303554408472  1.0000
  H   H1        1.0  0.6465522490671205  0.969036732701774  0.3071960140375511  1.0000
  H   H2        1.0  0.6615682425751289  0.3393098332836574  0.6927892504904136  1.0000
  H   H3        1.0  0.24580064450969985  0.2093283761052547  0.29932904991010634  1.0000
  H   H4        1.0  0.9102768183418701  0.9461990050665319  0.7009005763896354  1.0000
  H   H5        1.0  0.8380630972675222  0.1337722969050717  0.6423154258238384  1.0000
  H   H6        1.0  0.49099138111111523  0.19551651654867191  0.3577115165983074  1.0000
  H   H7        1.0  0.3107265547408176  0.6777010033938851  0.31365327373622154  1.0000
  H   H8        1.0  0.3645555642568821  0.9969938336348676  0.6865166290474037  1.0000
  H   H9        1.0  0.08653825224843789  0.8680617955727996  0.07698492980616577  1.0000
  H   H10       1.0  0.7900823326957604  0.008608302085924915  0.9222594611517038  1.0000
  H   H11       1.0  0.5515076329989554  0.8460044255783145  0.6993967090965254  1.0000
  H   H12       1.0  0.14609669621005855  0.8517646320304806  0.3007869036764674  1.0000
  H   H13       1.0  0.9909024837091139  0.7869512260708049  0.315160067022511  1.0000
  H   H14       1.0  0.4727981824643948  0.6759114003298593  0.6850708703148668  1.0000
  H   H15       1.0  0.1577931662244866  0.8817141939744387  0.5878480732685959  1.0000
  H   H16       1.0  0.29434021480833655  0.5700092881480927  0.41233535110354314  1.0000
  H   H17       1.0  0.8379005565385285  0.7623994603990665  0.32212258611989597  1.0000
  H   H18       1.0  0.4414779418312875  0.5162192205931858  0.6781318395438233  1.0000
  H   H19       1.0  0.07191176442535872  0.5307799643180006  0.8592559201123109  1.0000
  H   H20       1.0  0.6710987588817972  0.21247420852406393  0.1406652128760726  1.0000
  H   H21       1.0  0.8254123862357545  0.47817193150402193  0.7801221355313716  1.0000
  H   H22       1.0  0.6972739349960619  0.04507757298011936  0.2191942414066119  1.0000
  H   H23       1.0  0.940996133898075  0.6549303536256375  0.9224447890293562  1.0000
  H   H24       1.0  0.7312218561891227  0.01801526113879959  0.07655174880277123  1.0000
  H   H25       1.0  0.9515045348809321  0.34109704351747894  0.7251936343580211  1.0000
  H   H26       1.0  0.6157460743520745  0.2262896051908143  0.27505029924891744  1.0000
  H   H27       1.0  0.4925505740108846  0.14524599329813986  0.006291355648507058  1.0000
  H   H28       1.0  0.44179887331577566  0.034902323792465585  0.8702320995512807  1.0000
  H   H29       1.0  0.3822067824500834  0.134496013954454  0.8671819577836642  1.0000
  H   H30       1.0  0.13728276915679766  0.4868872705743001  0.9933116204862315  1.0000
  H   H31       1.0  0.1641777252938963  0.572051864095897  0.130114185455298  1.0000
  H   H32       1.0  0.26580880207720975  0.5145603730719301  0.13170999477691941  1.0000
  N   N1        1.0  0.5340304028303677  0.9859464192262307  0.3513547402531784  1.0000
  N   N2        1.0  0.6345428976611911  0.18276829317312604  0.6488061503326533  1.0000
  N   N3        1.0  0.3312261979753899  0.15224866395617204  0.4184782931775714  1.0000
  N   N4        1.0  0.7339650790160447  0.9130898008655064  0.5816062097647218  1.0000
  N   N5        1.0  0.39620691415086634  0.19134375199946874  0.5365972643407985  1.0000
  N   N6        1.0  0.6548273438662521  0.8599344438804337  0.4634625590875673  1.0000
  N   N7        1.0  0.6895472993903126  0.11758795878704116  0.6327886715055867  1.0000
  N   N8        1.0  0.4847770213646712  0.056853779817750236  0.3674158190616126  1.0000
  N   N9        1.0  0.4482741427235054  0.8201009162416284  0.439564772530474  1.0000
  N   N10       1.0  0.38063692443397895  0.008763145115281597  0.5605290090118016  1.0000
  N   N11       1.0  0.25546221383908824  0.8784513152466287  0.19149915594373107  1.0000
  N   N12       1.0  0.6868453760120801  0.06379505285323012  0.8085668932223838  1.0000
  N   N13       1.0  0.6120271062223283  0.11306484643577622  0.8041590877581511  1.0000
  N   N14       1.0  0.3089771697774994  0.807978520070037  0.19611848991032588  1.0000
  N   N15       1.0  0.5242793987700622  0.8726044746620474  0.5613408827371345  1.0000
  N   N16       1.0  0.3110577130988476  0.9628826325747394  0.4387505748232525  1.0000
  N   N17       1.0  0.024379700811060643  0.8809404254593287  0.6249926767469133  1.0000
  N   N18       1.0  0.2568732675805522  0.39934027408181555  0.37518372207650696  1.0000
  N   N19       1.0  0.4710179593915882  0.3431307474781988  0.7115040566169881  1.0000
  N   N20       1.0  0.631514089825565  0.759129666648043  0.28865367346222115  1.0000
  O   O1        1.0  0.0706335554982758  0.9765229105364668  0.6825885848320893  1.0000
  O   O2        1.0  0.06040464838383747  0.8209209182185901  0.661186632782659  1.0000
  O   O3        1.0  0.2946269053252592  0.3875679256208286  0.3173457307308282  1.0000
  O   O4        1.0  0.160648951262921  0.39948487312117464  0.33922257008276085  1.0000
  O   O5        1.0  0.5192510058108155  0.294440035731391  0.7660357925965471  1.0000
  O   O6        1.0  0.48123176189726274  0.43343375530785977  0.766445756380456  1.0000
  O   O7        1.0  0.5282321930126911  0.7531159999596538  0.23400028263996817  1.0000
  O   O8        1.0  0.6668164041216185  0.7139464999041322  0.23382780204642722  1.0000
  O   O9        1.0  0.5394576286849568  0.17355522393225445  0.9071099588032965  1.0000
  O   O10       1.0  0.2661524665413282  0.632417184039049  0.09311464116493083  1.0000
  Zn  Zn1       1.0  0.47832618870582166  0.8497471901900654  0.33550520135588596  1.0000
  Zn  Zn2       1.0  0.5143694253140225  0.1428531665097097  0.6647766138999032  1.0000
  Zn  Zn3       1.0  0.3407204311761944  0.011568194867919606  0.3449929285683879  1.0000
  Zn  Zn4       1.0  0.6669012347520394  0.9961604388855462  0.6553024382711923  1.0000
