data_image0
_chemical_formula_structural       C18H15N6O21Yb3
_chemical_formula_sum              "C18 H15 N6 O21 Yb3"
_cell_length_a       9.608875914134536
_cell_length_b       9.608861617206763
_cell_length_c       9.608875411641472
_cell_angle_alpha    78.92299444326602
_cell_angle_beta     78.92285230299457
_cell_angle_gamma    78.92281365801811

_space_group_name_H-M_alt    "P 1"
_space_group_IT_number       1

loop_
  _space_group_symop_operation_xyz
  'x, y, z'

loop_
  _atom_site_type_symbol
  _atom_site_label
  _atom_site_symmetry_multiplicity
  _atom_site_fract_x
  _atom_site_fract_y
  _atom_site_fract_z
  _atom_site_occupancy
  C   C1        1.0  0.6705678631583822  0.666524437460133  0.0015985246551792995  1.0000
  C   C2        1.0  0.001596407192629077  0.6705691365898688  0.6665262421152178  1.0000
  C   C3        1.0  0.6665276060593683  0.0015966801209899104  0.6705687881909341  1.0000
  C   C4        1.0  0.9984037129720917  0.3334780386011218  0.3294380007815931  1.0000
  C   C5        1.0  0.3334792249288441  0.3294361721272099  0.998402606574153  1.0000
  C   C6        1.0  0.3294398372032036  0.9984008505114446  0.333479990933462  1.0000
  C   C7        1.0  0.639116640382923  0.519496783161003  0.9990387244484251  1.0000
  C   C8        1.0  0.9990383834975061  0.6391153586783958  0.5194979329205509  1.0000
  C   C9        1.0  0.5194981246843325  0.9990371799713461  0.6391171202813979  1.0000
  C   C10       1.0  0.0009653019302219872  0.4805046251338967  0.3608856629843728  1.0000
  C   C11       1.0  0.4805055726362609  0.36088348482093835  0.0009654922215248  1.0000
  C   C12       1.0  0.3608871975777035  0.0009608067237180982  0.4805070712534416  1.0000
  C   C13       1.0  0.49896178309539596  0.501040886895801  2.4792503689999846e-07  1.0000
  C   C14       1.0  4.4184363900175676e-07  0.49895961100222075  0.5010430074132514  1.0000
  C   C15       1.0  0.5010444210720946  0.999998913504733  0.498960873534692  1.0000
  C   C16       1.0  0.7244724294505501  0.2755317036651945  4.2766564973999996e-06  1.0000
  C   C17       1.0  5.021762262911409e-06  0.7244720592291642  0.2755335789955851  1.0000
  C   C18       1.0  0.275534172872149  1.976457525658874e-06  0.724472951113057  1.0000
  H   H1        1.0  0.4099709436409639  0.5900319733568439  3.5421140150000095e-07  1.0000
  H   H2        1.0  1.0859616211054593e-06  0.4099706723771561  0.5900340991371564  1.0000
  H   H3        1.0  0.5900357401591378  0.9999996007121293  0.4099718245920982  1.0000
  H   H4        1.0  0.7629300708658989  0.8528092680556439  0.07561292621635829  1.0000
  H   H5        1.0  0.07561279406500891  0.7629304909721814  0.8528107807432619  1.0000
  H   H6        1.0  0.8528118672357865  0.07561159557143073  0.7629312245709983  1.0000
  H   H7        1.0  0.9243897923552211  0.1471907019139493  0.23708295187176281  1.0000
  H   H8        1.0  0.14719398057821553  0.2370804376735834  0.924391540792037  1.0000
  H   H9        1.0  0.2370823239804379  0.9243897463803994  0.1471943998047465  1.0000
  H   H10       1.0  0.7653892532637129  0.0227172950068706  0.06289293450175389  1.0000
  H   H11       1.0  0.0628951744046091  0.7653878548505518  0.0227182513847808  1.0000
  H   H12       1.0  0.02271954481862788  0.06289267540285692  0.7653884527468122  1.0000
  H   H13       1.0  0.9371108755626313  0.9772881488239729  0.23462347644818488  1.0000
  H   H14       1.0  0.9772908237785101  0.2346202099037953  0.93711161272455  1.0000
  H   H15       1.0  0.2346224946264143  0.9371101253288006  0.9772901708280771  1.0000
  N   N1        1.0  0.7506061902564055  0.4119435806259517  0.0007303499747309  1.0000
  N   N2        1.0  0.0007312702180897275  0.7506051192099505  0.4119452826393726  1.0000
  N   N3        1.0  0.4119463669675199  0.0007291546377671997  0.7506064989519885  1.0000
  N   N4        1.0  0.9992762980992964  0.5880613877330347  0.2493984440897066  1.0000
  N   N5        1.0  0.5880609989133491  0.24939555274189482  0.9992757541531745  1.0000
  N   N6        1.0  0.24939846724631556  0.9992730091852738  0.5880621215680505  1.0000
  O   O1        1.0  0.5747154855545774  0.7722408512007206  0.9733590829457767  1.0000
  O   O2        1.0  0.9733557742375399  0.5747176854473254  0.772243531907172  1.0000
  O   O3        1.0  0.7722460057966103  0.9733562463028634  0.5747175242313887  1.0000
  O   O4        1.0  0.026644238378182198  0.2277606631437479  0.4252902990839189  1.0000
  O   O5        1.0  0.2277620557707536  0.42529047244442353  0.026643363547115894  1.0000
  O   O6        1.0  0.4252916654003868  0.026642946014114  0.2277646496285612  1.0000
  O   O7        1.0  0.7916171320224518  0.6722712506511783  0.0351106419478384  1.0000
  O   O8        1.0  0.0351104210101099  0.7916169567479016  0.6722734066768794  1.0000
  O   O9        1.0  0.6722741746335572  0.03510949585736265  0.7916172630688934  1.0000
  O   O10       1.0  0.9648992387910837  0.32773370169076077  0.2083863356432616  1.0000
  O   O11       1.0  0.3277325168312827  0.20838369603966103  0.9649000221415847  1.0000
  O   O12       1.0  0.20838665145726057  0.9648974859323047  0.3277340054943565  1.0000
  O   O13       1.0  0.8288369176444094  0.1711672315161508  4.152012131400005e-06  1.0000
  O   O14       1.0  6.414235585305163e-06  0.8288351491162373  0.1711685538734997  1.0000
  O   O15       1.0  0.1711678016316753  2.6446098786075218e-06  0.8288359518429829  1.0000
  O   O16       1.0  0.7033204385899481  0.9454275609993343  0.0938188295290345  1.0000
  O   O17       1.0  0.09381886744535708  0.7033195968403447  0.9454288787251386  1.0000
  O   O18       1.0  0.9454306572393348  0.09381842891811941  0.7033206452470822  1.0000
  O   O19       1.0  0.9061844232563488  0.054573836339770296  0.2966945168731101  1.0000
  O   O20       1.0  0.05457613705036122  0.29669139216728274  0.906184744796576  1.0000
  O   O21       1.0  0.2966930200772211  0.9061835462572388  0.0545762088810164  1.0000
  Yb  Yb1       1.0  0.5000045021608699  0.008421908305578513  0.991582841395811  1.0000
  Yb  Yb2       1.0  0.991582035908756  0.5000032714798053  0.008422005648469599  1.0000
  Yb  Yb3       1.0  0.008424207546816793  0.9915819036822031  0.5000043786909669  1.0000
