data_image0
_chemical_formula_structural       Al4C28H4N12O44
_chemical_formula_sum              "Al4 C28 H4 N12 O44"
_cell_length_a       7.02127822148328
_cell_length_b       16.19007245705599
_cell_length_c       19.287921772332314
_cell_angle_alpha    76.03392981455397
_cell_angle_beta     79.51551486110237
_cell_angle_gamma    77.48736872764101

_space_group_name_H-M_alt    "P 1"
_space_group_IT_number       1

loop_
  _space_group_symop_operation_xyz
  'x, y, z'

loop_
  _atom_site_type_symbol
  _atom_site_label
  _atom_site_symmetry_multiplicity
  _atom_site_fract_x
  _atom_site_fract_y
  _atom_site_fract_z
  _atom_site_occupancy
  Al  Al1       1.0  0.3874689661362607  0.24997364716182363  0.7517738016400344  1.0000
  Al  Al2       1.0  0.6125368068897995  0.7500254378392557  0.24821201736644852  1.0000
  Al  Al3       1.0  0.8892238522190608  0.2500328912780247  0.7481987881672724  1.0000
  Al  Al4       1.0  0.11078788574038576  0.7499624678386997  0.2517959175572671  1.0000
  C   C1        1.0  0.22878664092394246  0.15487204390748147  0.6695023349603701  1.0000
  C   C2        1.0  0.7712205788125738  0.8451162172297874  0.33049995782096186  1.0000
  C   C3        1.0  0.5534369668813206  0.34527879644273485  0.8303818002073343  1.0000
  C   C4        1.0  0.44656876894858005  0.6547143510958551  0.169610028996317  1.0000
  C   C5        1.0  0.13060084946922498  0.14877349402087975  0.8614617186391484  1.0000
  C   C6        1.0  0.8693695855124726  0.8512472867390246  0.13854460884901712  1.0000
  C   C7        1.0  0.6408363172934485  0.3511573773235313  0.6384584534028336  1.0000
  C   C8        1.0  0.35919175232428524  0.6488308405796206  0.3615306655212224  1.0000
  C   C9        1.0  0.6480948942920147  0.41572106799397124  0.5672479481325894  1.0000
  C   C10       1.0  0.3519313602003673  0.5842584755396916  0.4327420777671165  1.0000
  C   C11       1.0  0.13124662730374564  0.0842041857431327  0.9326782176451188  1.0000
  C   C12       1.0  0.868708768447419  0.9158433138410945  0.06734002875603559  1.0000
  C   C13       1.0  0.49863175479199356  0.4661910976283823  0.5325018698810027  1.0000
  C   C14       1.0  0.5013846785751492  0.5337911647117937  0.4674879897388422  1.0000
  C   C15       1.0  0.9974377127774049  0.03377967684556193  0.9674824050027483  1.0000
  C   C16       1.0  0.0025248615363860044  0.9662540735956288  0.03252952930512978  1.0000
  C   C17       1.0  0.5092120077214658  0.3927794817865476  0.8873357497805048  1.0000
  C   C18       1.0  0.49079378233253823  0.6072131490699989  0.11265648749396474  1.0000
  C   C19       1.0  0.289097356465355  0.10752096795687295  0.6124379710392275  1.0000
  C   C20       1.0  0.7109351654969768  0.8924592459285067  0.3875587903563799  1.0000
  C   C21       1.0  0.44068634570678705  0.4763873168511953  0.9917301703854304  1.0000
  C   C22       1.0  0.5593084045617686  0.5235936749398747  0.008267296363826  1.0000
  C   C23       1.0  0.40891488759007905  0.02368280105581991  0.5082184105376655  1.0000
  C   C24       1.0  0.5911036514420115  0.9763433671651215  0.4917717756730796  1.0000
  C   C25       1.0  0.5189112834001646  0.5688154636006076  0.06358894373595812  1.0000
  C   C26       1.0  0.481073006301756  0.4311690352208048  0.9364116967725238  1.0000
  C   C27       1.0  0.6510877642338567  0.9309605167012197  0.4365382922695603  1.0000
  C   C28       1.0  0.34892405663186576  0.06904349026821426  0.5634476021946354  1.0000
  H   H1        1.0  0.0942763709485275  0.3646414931567108  0.7240530367671526  1.0000
  H   H2        1.0  0.9057468640220205  0.6353605304269935  0.2759205554347234  1.0000
  H   H3        1.0  0.6830090323455519  0.13536035283795683  0.7760291974127824  1.0000
  H   H4        1.0  0.31699455943738253  0.8646371255794706  0.22397968462161089  1.0000
  N   N1        1.0  0.695253272563086  0.5552345624747305  0.42872749045817216  1.0000
  N   N2        1.0  0.30477851033599274  0.44474757351940775  0.5712631298381298  1.0000
  N   N3        1.0  0.1791516285586067  0.9447629412957854  0.07123775189244708  1.0000
  N   N4        1.0  0.8208237127287246  0.0552580935969902  0.9287670541686521  1.0000
  N   N5        1.0  0.14969775362811064  0.5741563692641948  0.4595328858474232  1.0000
  N   N6        1.0  0.8503294797260066  0.425829392151087  0.5404575127246076  1.0000
  N   N7        1.0  0.6831967760413343  0.9259189799481649  0.04054993267571672  1.0000
  N   N8        1.0  0.3167157496068071  0.07414685223475455  0.9594901573024757  1.0000
  N   N9        1.0  0.7544881275427356  0.530290131616383  0.9614233815595199  1.0000
  N   N10       1.0  0.24550691948226674  0.4696962985945633  0.03857375258849071  1.0000
  N   N11       1.0  0.7461933931361313  0.9697209173522339  0.5385630581587864  1.0000
  N   N12       1.0  0.2538396082047925  0.030289951967695548  0.46142204015630744  1.0000
  O   O1        1.0  0.9745774054393972  0.1704922396846128  0.8327992998850037  1.0000
  O   O2        1.0  0.02541687066956627  0.8295178838963866  0.16719563228682693  1.0000
  O   O3        1.0  0.4778970011663899  0.32941873811207517  0.6671430618529612  1.0000
  O   O4        1.0  0.5221231537777054  0.6705685907006258  0.33285138204655607  1.0000
  O   O5        1.0  0.36914986455463594  0.17195927676465328  0.6940917084317348  1.0000
  O   O6        1.0  0.6308730587406114  0.8280349224690441  0.30590457411979344  1.0000
  O   O7        1.0  0.7354721295625526  0.3281526696082652  0.8058288143033251  1.0000
  O   O8        1.0  0.26453279837352967  0.671843858384108  0.19416694934787426  1.0000
  O   O9        1.0  0.2946573428132239  0.17297356641736178  0.8376170838593708  1.0000
  O   O10       1.0  0.7053289099555256  0.827051076891067  0.162382230919718  1.0000
  O   O11       1.0  0.8051822360827924  0.32701757861570974  0.6623326602931102  1.0000
  O   O12       1.0  0.1948424684062712  0.6729661247758475  0.33766200533067814  1.0000
  O   O13       1.0  0.40723516406965377  0.32655064636321646  0.8107417347136731  1.0000
  O   O14       1.0  0.5927738996927586  0.6734410782244923  0.18925055798741416  1.0000
  O   O15       1.0  0.044274466744632056  0.17347715100348893  0.6891927135474916  1.0000
  O   O16       1.0  0.9557370914205445  0.8265085092570035  0.31080635005391605  1.0000
  O   O17       1.0  0.11705483499485303  0.3020869092427534  0.7405869201407  1.0000
  O   O18       1.0  0.8829628057846715  0.697915122930141  0.2593893068355939  1.0000
  O   O19       1.0  0.6597799142914125  0.19790399590546304  0.7594048768279863  1.0000
  O   O20       1.0  0.34023040523336284  0.802090320969825  0.24058801027860008  1.0000
  O   O21       1.0  0.7420624880668992  0.6172595953500919  0.44310008826220587  1.0000
  O   O22       1.0  0.7793078905495957  0.5130678038696602  0.38296926212957066  1.0000
  O   O23       1.0  0.2579511225066182  0.38273068870493215  0.5568873984082359  1.0000
  O   O24       1.0  0.22074847778936374  0.4869117585137064  0.6170260332329534  1.0000
  O   O25       1.0  0.30230645650117033  0.8827434935314787  0.05682685553522069  1.0000
  O   O26       1.0  0.17542292447170318  0.9869085868298415  0.11699127940558188  1.0000
  O   O27       1.0  0.6976802614764493  0.11728399596687941  0.9431715322341602  1.0000
  O   O28       1.0  0.8245170938144779  0.013104451251194868  0.8830238039726623  1.0000
  O   O29       1.0  0.05304025241593246  0.6222495567374653  0.49888440919505683  1.0000
  O   O30       1.0  0.09771876772917658  0.5192908315989727  0.4360251783734128  1.0000
  O   O31       1.0  0.9023056799334552  0.48069118594673227  0.5639688374093625  1.0000
  O   O32       1.0  0.9469941903860997  0.37774048304176944  0.5011072336116272  1.0000
  O   O33       1.0  0.674015065767122  0.877805882143818  0.001211632581956303  1.0000
  O   O34       1.0  0.5528292797394482  0.9807595363452394  0.06406135525952554  1.0000
  O   O35       1.0  0.44708817470999646  0.019295726049108536  0.9359936870694057  1.0000
  O   O36       1.0  0.3258836430120695  0.1222590430786784  0.998828512858445  1.0000
  O   O37       1.0  0.7862676390398559  0.6046132924919407  0.938281762848213  1.0000
  O   O38       1.0  0.8635514484725203  0.4627236762713525  0.95066919064044  1.0000
  O   O39       1.0  0.21373710605571  0.39537239393955304  0.061725205055687155  1.0000
  O   O40       1.0  0.1364492384536361  0.5372654557406166  0.04932250766997733  1.0000
  O   O41       1.0  0.8281205612425209  0.8953790642920725  0.5621745719062688  1.0000
  O   O42       1.0  0.7780473422394394  0.037361704446496516  0.5487897307319329  1.0000
  O   O43       1.0  0.1719151401497426  0.10462908593318342  0.4378106927035077  1.0000
  O   O44       1.0  0.22199093341561824  0.9626478865996052  0.45120033989366  1.0000
