data_image0
_chemical_formula_structural       C5H9N2O8Yb
_chemical_formula_sum              "C5 H9 N2 O8 Yb1"
_cell_length_a       6.513778476487356
_cell_length_b       6.625804634124107
_cell_length_c       6.62572026633414
_cell_angle_alpha    64.53385656829508
_cell_angle_beta     73.1343203258038
_cell_angle_gamma    73.13470998083638

_space_group_name_H-M_alt    "P 1"
_space_group_IT_number       1

loop_
  _space_group_symop_operation_xyz
  'x, y, z'

loop_
  _atom_site_type_symbol
  _atom_site_label
  _atom_site_symmetry_multiplicity
  _atom_site_fract_x
  _atom_site_fract_y
  _atom_site_fract_z
  _atom_site_occupancy
  C   C1        1.0  0.2938449032745751  0.17788677968260203  0.6503981724938938  1.0000
  C   C2        1.0  0.7061543955976856  0.34960874991241303  0.8220818805721775  1.0000
  C   C3        1.0  0.9632072137550268  0.17589098568772235  0.298508641187972  1.0000
  C   C4        1.0  0.036817770726258914  0.7014723976891942  0.8241228964776537  1.0000
  C   C5        1.0  0.49998964345251545  0.7145898396124862  0.28541385934936864  1.0000
  H   H1        1.0  0.5981352809693019  0.0026336587697244115  0.557201252531314  1.0000
  H   H2        1.0  0.40184231835632295  0.44280417295431806  0.9973633264487345  1.0000
  H   H3        1.0  0.46946159829392553  0.9032722298614216  0.8512553200975572  1.0000
  H   H4        1.0  0.5305171513279204  0.14866194991243017  0.09678575352772609  1.0000
  H   H5        1.0  0.17457061239400673  0.1802741944728795  0.8065633629881146  1.0000
  H   H6        1.0  0.8254478607738847  0.193375762865962  0.8197322242378959  1.0000
  H   H7        1.0  0.1295474609322653  0.17611330622689536  0.19216325839752804  1.0000
  H   H8        1.0  0.8704450406940013  0.807872832644314  0.8238788509603052  1.0000
  H   H9        1.0  0.5000097201871724  0.5594220156718279  0.440569773478451  1.0000
  N   N1        1.0  0.4672962769359189  0.014108711147450614  0.6865149988246838  1.0000
  N   N2        1.0  0.5326993535061534  0.3134563967355533  0.9858964251855935  1.0000
  O   O1        1.0  0.3313818270667142  0.7927446760499137  0.1945146816101938  1.0000
  O   O2        1.0  0.6686216011324575  0.8055075000031305  0.20727484145090355  1.0000
  O   O3        1.0  0.26040086496968945  0.3224085701430752  0.45751119903876963  1.0000
  O   O4        1.0  0.7396090649453626  0.542534263604388  0.6775663619545182  1.0000
  O   O5        1.0  0.8770075110193786  0.006873721893263989  0.34418508122045205  1.0000
  O   O6        1.0  0.1229998795955894  0.6558265120039193  0.9931533667969319  1.0000
  O   O7        1.0  0.8719516284622626  0.3368060089371737  0.36579338847030834  1.0000
  O   O8        1.0  0.12804701919205996  0.6341801740539879  0.6632166966860422  1.0000
  Yb  Yb1       1.0  0.9999930895823608  0.6462661986261439  0.35374566585753786  1.0000
