data_image0
_chemical_formula_structural       C24H24N36Yb4
_chemical_formula_sum              "C24 H24 N36 Yb4"
_cell_length_a       9.187231036141302
_cell_length_b       9.187225615645056
_cell_length_c       12.477826827987137
_cell_angle_alpha    91.56842617613431
_cell_angle_beta     91.56832319484403
_cell_angle_gamma    118.92188453078487

_space_group_name_H-M_alt    "P 1"
_space_group_IT_number       1

loop_
  _space_group_symop_operation_xyz
  'x, y, z'

loop_
  _atom_site_type_symbol
  _atom_site_label
  _atom_site_symmetry_multiplicity
  _atom_site_fract_x
  _atom_site_fract_y
  _atom_site_fract_z
  _atom_site_occupancy
  C   C1        1.0  0.2678070424719081  0.3898851948572428  0.2962662427900824  1.0000
  C   C2        1.0  0.6101132815273831  0.732190776622389  0.2037342366505399  1.0000
  C   C3        1.0  0.7321928034982864  0.6101156498476004  0.7037328816612884  1.0000
  C   C4        1.0  0.3898871065492174  0.26780887892518024  0.7962656890448515  1.0000
  C   C5        1.0  0.21923702376624016  0.5101481256320497  0.3140579575864422  1.0000
  C   C6        1.0  0.48985054851480925  0.780760596630664  0.18594263625684707  1.0000
  C   C7        1.0  0.7807612380904345  0.4898515787807156  0.6859427668202046  1.0000
  C   C8        1.0  0.510149839561791  0.2192390589169051  0.8140572894385517  1.0000
  C   C9        1.0  0.8303265258313034  0.14324338063572384  0.38175950502537864  1.0000
  C   C10       1.0  0.8567558033374639  0.1696706660287859  0.11823962386292662  1.0000
  C   C11       1.0  0.1696739729148504  0.8567587605678713  0.6182404252707769  1.0000
  C   C12       1.0  0.1432445847391364  0.8303289895187903  0.8817603018324718  1.0000
  C   C13       1.0  0.8642123461539057  0.017958723150677303  0.41288354566777496  1.0000
  C   C14       1.0  0.9820389205331993  0.1357864971049025  0.0871170803435035  1.0000
  C   C15       1.0  0.13578869469863977  0.9820422288956507  0.5871171858724084  1.0000
  C   C16       1.0  0.017961414834445497  0.8642131057330359  0.9128820427741218  1.0000
  C   C17       1.0  0.28003996814126  0.9964723014853973  0.1670914302561926  1.0000
  C   C18       1.0  0.0035284040455820513  0.7199608098425544  0.3329094611222274  1.0000
  C   C19       1.0  0.7199604199353403  0.003527354062171595  0.8329084954391988  1.0000
  C   C20       1.0  0.9964726368069706  0.28004014220377377  0.6670912704179558  1.0000
  C   C21       1.0  0.3844985948855069  0.0918347364276286  0.08873372796701771  1.0000
  C   C22       1.0  0.9081657158410791  0.6155021850912945  0.4112672815743609  1.0000
  C   C23       1.0  0.6155024459670385  0.9081662156186923  0.9112670035731655  1.0000
  C   C24       1.0  0.09183423554702592  0.38449876503280933  0.5887334480325634  1.0000
  H   H1        1.0  0.22823018575667933  0.29240614547685334  0.23383970073456342  1.0000
  H   H2        1.0  0.7075934192826524  0.7717687909115868  0.2661607434496389  1.0000
  H   H3        1.0  0.7717697129224774  0.7075947519376199  0.7661602262945879  1.0000
  H   H4        1.0  0.2924080582583883  0.2282308665581994  0.7338391841790184  1.0000
  H   H5        1.0  0.13186075643412917  0.5347830572483404  0.2687722220848415  1.0000
  H   H6        1.0  0.4652162591551559  0.868137838817617  0.23122764813356156  1.0000
  H   H7        1.0  0.868137452713583  0.46521659445479446  0.7312276997440321  1.0000
  H   H8        1.0  0.534785818452882  0.13186306244129037  0.7687722827621073  1.0000
  H   H9        1.0  0.902259301123458  0.25177563567463324  0.33601959994254577  1.0000
  H   H10       1.0  0.748222012845389  0.09773940309778338  0.16398035609739028  1.0000
  H   H11       1.0  0.09774173972909489  0.7482253163716878  0.6639811315976375  1.0000
  H   H12       1.0  0.251777722455259  0.9022589559510268  0.8360187637532164  1.0000
  H   H13       1.0  0.9701300107512267  0.9998719123799518  0.3979312731064084  1.0000
  H   H14       1.0  0.00012519067577439956  0.029868064108725906  0.1020691417859467  1.0000
  H   H15       1.0  0.029870430034328904  0.0001277958772547953  0.6020694551667631  1.0000
  H   H16       1.0  0.9998734024514704  0.9701302403082437  0.8979291735536208  1.0000
  H   H17       1.0  0.16345069269831916  0.8804911966484213  0.1589828466918277  1.0000
  H   H18       1.0  0.1195084935854638  0.8365497251213085  0.3410172402709932  1.0000
  H   H19       1.0  0.8365496953782738  0.1195084588991477  0.8410170790035709  1.0000
  H   H20       1.0  0.8804903156292456  0.1634511703709478  0.6589826848248919  1.0000
  H   H21       1.0  0.37228191992087284  0.07366491999524531  0.0023273723030712  1.0000
  H   H22       1.0  0.9263349575204317  0.6277186409450836  0.4976736317979587  1.0000
  H   H23       1.0  0.6277185208646826  0.9263347882619614  0.9976733559701004  1.0000
  H   H24       1.0  0.07366499386768062  0.37228230917902755  0.5023270978089656  1.0000
  N   N1        1.0  0.38470574524287576  0.41361044719116086  0.37359544420628776  1.0000
  N   N2        1.0  0.5863891267122413  0.6152933578921279  0.126404173926737  1.0000
  N   N3        1.0  0.6152941007273186  0.5863903975136823  0.6264036802450832  1.0000
  N   N4        1.0  0.413611261364359  0.3847062976554483  0.8735957517686614  1.0000
  N   N5        1.0  0.40707699443706963  0.5446408400834244  0.435075256043973  1.0000
  N   N6        1.0  0.45535928701866607  0.5929207625722981  0.06492443431308462  1.0000
  N   N7        1.0  0.5929222514661348  0.4553587608322971  0.5649238651403863  1.0000
  N   N8        1.0  0.5446405009909369  0.40707764918614947  0.9350754881152952  1.0000
  N   N9        1.0  0.3089914614689988  0.6050777431072731  0.40155211172012173  1.0000
  N   N10       1.0  0.3949220816900478  0.6910064687955426  0.09844768582630793  1.0000
  N   N11       1.0  0.6910067476787134  0.3949219085958617  0.5984478101087519  1.0000
  N   N12       1.0  0.605078253677597  0.3089931340423959  0.9015514372913175  1.0000
  N   N13       1.0  0.682024807191688  0.11111687744517698  0.42089665152168726  1.0000
  N   N14       1.0  0.8888803110553173  0.3179726472853446  0.0791025530198084  1.0000
  N   N15       1.0  0.3179744387115094  0.8888827234705446  0.5791024696626721  1.0000
  N   N16       1.0  0.1111200770212832  0.6820270082622316  0.92089737267559  1.0000
  N   N17       1.0  0.6282994140171071  0.9710478837313021  0.47378507275166737  1.0000
  N   N18       1.0  0.028950236638102856  0.3716993517783322  0.0262155572663758  1.0000
  N   N19       1.0  0.3716998845950528  0.02895176989405  0.5262148510104652  1.0000
  N   N20       1.0  0.9710501514384973  0.6283003037692366  0.9737843684290228  1.0000
  N   N21       1.0  0.7353570120430959  0.9124153206040476  0.4706219309793341  1.0000
  N   N22       1.0  0.08758359439432442  0.26464150950916837  0.0293793901296482  1.0000
  N   N23       1.0  0.2646428866360537  0.08758557681042592  0.52937799604981  1.0000
  N   N24       1.0  0.9124167936822758  0.7353581460384006  0.9706205355657433  1.0000
  N   N25       1.0  0.3530636561480379  0.07224907379087853  0.2635726003617762  1.0000
  N   N26       1.0  0.9277501172978833  0.6469362568850557  0.23642841343859544  1.0000
  N   N27       1.0  0.6469367846375179  0.9277506344663281  0.7364281279113956  1.0000
  N   N28       1.0  0.07224923402322497  0.3530634494499266  0.7635723129013102  1.0000
  N   N29       1.0  0.49555230414937074  0.20740023188990628  0.24401595589051087  1.0000
  N   N30       1.0  0.7925996912476878  0.5044485386387408  0.2559850558821495  1.0000
  N   N31       1.0  0.5044481366361852  0.7925994763673004  0.755984772382661  1.0000
  N   N32       1.0  0.2073996600734205  0.49555116769624163  0.7440156704577631  1.0000
  N   N33       1.0  0.5179452824278528  0.22349689993102836  0.1386932979209803  1.0000
  N   N34       1.0  0.776504019949165  0.4820548819522657  0.3613077101486084  1.0000
  N   N35       1.0  0.4820547216692148  0.7765041029027131  0.8613082342637172  1.0000
  N   N36       1.0  0.22349642083639054  0.5179448263049339  0.6386930181245631  1.0000
  Yb  Yb1       1.0  0.5231637940939606  0.25923871362892476  0.4277606387531705  1.0000
  Yb  Yb2       1.0  0.740761503859467  0.4768352457304487  0.07223878198060871  1.0000
  Yb  Yb3       1.0  0.4768355045181921  0.7407609399964273  0.5722392850089619  1.0000
  Yb  Yb4       1.0  0.2592382841501362  0.5231631660279988  0.9277611404477784  1.0000
