data_image0
_chemical_formula_structural       C12H18O12Yb2
_chemical_formula_sum              "C12 H18 O12 Yb2"
_cell_length_a       8.128696313542662
_cell_length_b       8.128686945872097
_cell_length_c       8.260860366001724
_cell_angle_alpha    90.00002971047068
_cell_angle_beta     89.9999258722601
_cell_angle_gamma    119.08564731795632

_space_group_name_H-M_alt    "P 1"
_space_group_IT_number       1

loop_
  _space_group_symop_operation_xyz
  'x, y, z'

loop_
  _atom_site_type_symbol
  _atom_site_label
  _atom_site_symmetry_multiplicity
  _atom_site_fract_x
  _atom_site_fract_y
  _atom_site_fract_z
  _atom_site_occupancy
  C   C1        1.0  0.27404035260434517  0.27404028383322304  0.9732459775755303  1.0000
  C   C2        1.0  0.7259661200180362  0.7259617935411242  0.4732567193047146  1.0000
  C   C3        1.0  0.3970601629179811  0.39706129240540383  0.8406568348737693  1.0000
  C   C4        1.0  0.6029384062064269  0.6029393355668164  0.3406604088087022  1.0000
  C   C5        1.0  0.9804275037973227  0.6762621677767199  0.019156143596155993  1.0000
  C   C6        1.0  0.019566566975718982  0.32373846373130993  0.519165120897739  1.0000
  C   C7        1.0  0.6762637903989415  0.9804297131287923  0.0191564148122012  1.0000
  C   C8        1.0  0.32373813348378633  0.019566774649909708  0.5191648496756258  1.0000
  C   C9        1.0  0.9890255907389331  0.4957157813917306  0.0324985285036377  1.0000
  C   C10       1.0  0.010962846070555044  0.50428340093859  0.5324955025381115  1.0000
  C   C11       1.0  0.49571801281260264  0.9890279991792141  0.0324977578470182  1.0000
  C   C12       1.0  0.5042831008448942  0.0109642736283959  0.5324974837125467  1.0000
  H   H1        1.0  0.3424033278674443  0.3424033672843336  0.7204127221564817  1.0000
  H   H2        1.0  0.6575876476258601  0.657588800890558  0.22041504319584956  1.0000
  H   H3        1.0  0.5390352043926256  0.41444855816649095  0.8535210259260138  1.0000
  H   H4        1.0  0.4609632307894456  0.5855492625978157  0.3535271937779996  1.0000
  H   H5        1.0  0.4144479454505969  0.5390351933362255  0.8535223475448247  1.0000
  H   H6        1.0  0.5855486953620144  0.46096401528527753  0.3535270826883448  1.0000
  H   H7        1.0  0.02115907865761803  0.46986383059625325  0.15538585686970657  1.0000
  H   H8        1.0  0.9788263705252689  0.5301268989359542  0.6553852373402619  1.0000
  H   H9        1.0  0.4698669876332105  0.021159987113492203  0.1553866672969164  1.0000
  H   H10       1.0  0.5301275496595963  0.9788266086104827  0.655386847961523  1.0000
  H   H11       1.0  0.09574495326744877  0.5011544899504018  0.9477524362608634  1.0000
  H   H12       1.0  0.9042404430843903  0.4988446167123328  0.44775073015536276  1.0000
  H   H13       1.0  0.5011556979460323  0.0957485439406938  0.9477520747675783  1.0000
  H   H14       1.0  0.49884540462518595  0.9042422752633923  0.4477510916365119  1.0000
  H   H15       1.0  0.8545108815655384  0.37807965375394303  0.9921637588331504  1.0000
  H   H16       1.0  0.14547592131287237  0.6219250678160008  0.4921655064994042  1.0000
  H   H17       1.0  0.37808186006537164  0.854512293373375  0.992164183653756  1.0000
  H   H18       1.0  0.621925915869028  0.14547717168767352  0.4921662921891965  1.0000
  O   O1        1.0  0.1193662710958279  0.11936531611488022  0.9429283721882982  1.0000
  O   O2        1.0  0.8806403594570328  0.8806395708148784  0.44291962556916786  1.0000
  O   O3        1.0  0.01477956345838278  0.7797133248627475  0.14420066342856327  1.0000
  O   O4        1.0  0.9852269181062641  0.22029300000551189  0.6441877742678415  1.0000
  O   O5        1.0  0.7797178033886142  0.014785379201519799  0.1441987708274368  1.0000
  O   O6        1.0  0.2202938507213331  0.9852265963085145  0.6441884563394211  1.0000
  O   O7        1.0  0.938562144492437  0.7157236795332766  0.8812649298295054  1.0000
  O   O8        1.0  0.0614391876671903  0.2842853792583639  0.38125208848705927  1.0000
  O   O9        1.0  0.7157206861296856  0.9385592751090499  0.881263918002446  1.0000
  O   O10       1.0  0.2842883828711892  0.06144283447494559  0.3812531003074184  1.0000
  O   O11       1.0  0.3177636393728989  0.317763860430297  0.1202101159594022  1.0000
  O   O12       1.0  0.6822473720550236  0.6822467106047583  0.6202014788349857  1.0000
  Yb  Yb1       1.0  0.05788557145159961  0.0578838410821021  0.23037549726412715  1.0000
  Yb  Yb2       1.0  0.9421239373595116  0.9421238997424838  0.7303775534267485  1.0000
