data_image0
_chemical_formula_structural       C48H40N16O4Zn4
_chemical_formula_sum              "C48 H40 N16 O4 Zn4"
_cell_length_a       13.038161230039622
_cell_length_b       13.028991068278962
_cell_length_c       14.84894200462662
_cell_angle_alpha    117.0188033489641
_cell_angle_beta     105.41422816785024
_cell_angle_gamma    100.3932543114512

_space_group_name_H-M_alt    "P 1"
_space_group_IT_number       1

loop_
  _space_group_symop_operation_xyz
  'x, y, z'

loop_
  _atom_site_type_symbol
  _atom_site_label
  _atom_site_symmetry_multiplicity
  _atom_site_fract_x
  _atom_site_fract_y
  _atom_site_fract_z
  _atom_site_occupancy
  C   C1        1.0  0.5526541445235084  0.31264080187367677  0.11306363236750616  1.0000
  C   C2        1.0  0.6184225652561466  0.0015824350630281884  0.14586201089569056  1.0000
  C   C3        1.0  0.8556927005936358  0.47243355215326216  0.8544223796278555  1.0000
  C   C4        1.0  0.33924088251421136  0.5344327531470653  0.30741171093611525  1.0000
  C   C5        1.0  0.22704999829569056  0.031217797591985067  0.6924671387007704  1.0000
  C   C6        1.0  0.38587155894962416  0.640710783875754  0.5101628710895055  1.0000
  C   C7        1.0  0.13012323686568533  0.8750407723859296  0.48965809696257145  1.0000
  C   C8        1.0  0.19940445308355967  0.4393430260155568  0.8867499824097107  1.0000
  C   C9        1.0  0.3289489565151981  0.5368831918281529  0.4035043033735518  1.0000
  C   C10       1.0  0.1333961246862002  0.9245902288162996  0.5963999740773643  1.0000
  C   C11       1.0  0.2724819741685209  0.430752101606842  0.3998716519469737  1.0000
  C   C12       1.0  0.031057668503528528  0.8717867163460369  0.6002008279774242  1.0000
  C   C13       1.0  0.2831984865955376  0.4263250044702289  0.4940318619970227  1.0000
  C   C14       1.0  0.932272329724178  0.7885405308532611  0.5060743525636722  1.0000
  C   C15       1.0  0.3525365268151858  0.5283834328966819  0.601901353866097  1.0000
  C   C16       1.0  0.9259735373493713  0.7501606404300531  0.39813999290907254  1.0000
  C   C17       1.0  0.39782303248637163  0.6358873806941929  0.6040670764889027  1.0000
  C   C18       1.0  0.031198825142602974  0.793177557402366  0.3958268690253986  1.0000
  C   C19       1.0  0.4830232625396462  0.765742184421917  0.6801784085180882  1.0000
  C   C20       1.0  0.08467773437403985  0.8022666578535151  0.31960161010582055  1.0000
  C   C21       1.0  0.8083687538233449  0.6547852546699106  0.19275467368844787  1.0000
  C   C22       1.0  0.46256372775085464  0.616296772824853  0.8073461354344145  1.0000
  C   C23       1.0  0.46345679527856015  0.7743395682467379  0.5740210096110656  1.0000
  C   C24       1.0  0.8202630439445429  0.6897578835562186  0.3009453556634439  1.0000
  C   C25       1.0  0.1995709068273329  0.8887932526889628  0.42570119906533666  1.0000
  C   C26       1.0  0.05927762377426407  0.5553743643152129  0.8885242002051964  1.0000
  C   C27       1.0  0.6672802538093449  0.17108362727089602  0.11163320400825669  1.0000
  C   C28       1.0  0.9619435131969849  0.4612620213242307  0.8474009345128688  1.0000
  C   C29       1.0  0.6143324095768533  0.11486194034104368  0.15274653041183217  1.0000
  C   C30       1.0  0.3893100890444856  0.5199270989996805  0.6991040850180211  1.0000
  C   C31       1.0  0.75456197500516  0.3760446128863962  0.8148953790565441  1.0000
  C   C32       1.0  0.5612130170407424  0.9398783432760495  0.18507178592199816  1.0000
  C   C33       1.0  0.39076929908619457  0.6339859670972245  0.30078663691757146  1.0000
  C   C34       1.0  0.3329304726333859  0.08966678084968992  0.6989691416408944  1.0000
  C   C35       1.0  0.8317721573942692  0.5783830446260012  0.9146530325494806  1.0000
  C   C36       1.0  0.6644541273930639  0.9175350795386592  0.08610715825628976  1.0000
  C   C37       1.0  0.31806607378674556  0.43128784241993406  0.2050411828839386  1.0000
  C   C38       1.0  0.22638570536812352  0.11232910154471651  0.7948853976811917  1.0000
  C   C39       1.0  0.7085927612080524  0.6796071409541965  0.2955488174969643  1.0000
  C   C40       1.0  0.384139027517989  0.4134693255486252  0.7044609058453514  1.0000
  C   C41       1.0  0.6596384511884422  0.2935512234960953  0.01732413076031477  1.0000
  C   C42       1.0  0.2760228693862175  0.642302140301112  0.9826855601028582  1.0000
  C   C43       1.0  0.6349945203647563  0.2605248399233274  0.0894702638169916  1.0000
  C   C44       1.0  0.1708477057883614  0.5453579839219174  0.910575815458344  1.0000
  C   C45       1.0  0.5303262503769658  0.9689256756038275  0.8239589024705223  1.0000
  C   C46       1.0  0.14381258683869177  0.7059776916405199  0.17569275938001985  1.0000
  C   C47       1.0  0.643036116481774  0.6033939792661371  0.3937704427284314  1.0000
  C   C48       1.0  0.20958592920833746  0.24945991679352628  0.6064050959444315  1.0000
  H   H1        1.0  0.5083053386637814  0.31059614320410833  0.1649593063755004  1.0000
  H   H2        1.0  0.05146475995027074  0.8522356051928455  0.28167899573910643  1.0000
  H   H3        1.0  0.5709689398501183  0.770758983886459  0.7183712772992121  1.0000
  H   H4        1.0  0.41984185505413757  0.8390978532802505  0.5737160908495651  1.0000
  H   H5        1.0  0.2646233606944295  0.8454413878744518  0.4259185180152655  1.0000
  H   H6        1.0  0.539111469894479  0.7942928787045459  0.5565613886057716  1.0000
  H   H7        1.0  0.23702437590834813  0.9820932081574794  0.4433977467477914  1.0000
  H   H8        1.0  0.1455539563845605  0.3429118967965222  0.8347046578319277  1.0000
  H   H9        1.0  0.057375466072073826  0.6486735134649348  0.9203418583241568  1.0000
  H   H10       1.0  0.7286724742983849  0.13727129985861805  0.07980530967213172  1.0000
  H   H11       1.0  0.9646231093670538  0.3682222003880256  0.8152924082701671  1.0000
  H   H12       1.0  0.5534384372371052  0.1497170667458859  0.18476201267142045  1.0000
  H   H13       1.0  0.8721245802745012  0.645736485635851  0.15791926750097904  1.0000
  H   H14       1.0  0.4885124023936029  0.7150268189817054  0.8423404835489021  1.0000
  H   H15       1.0  0.734826563733435  0.2774280613926548  0.7647039189096173  1.0000
  H   H16       1.0  0.5126059838699177  0.9704004078406356  0.23498488874312048  1.0000
  H   H17       1.0  0.4236357669833098  0.7318207406277537  0.36185328695923835  1.0000
  H   H18       1.0  0.3695867830388975  0.061579707107043115  0.6378681681751954  1.0000
  H   H19       1.0  0.8859631381432536  0.6745903475006754  0.9621632600537847  1.0000
  H   H20       1.0  0.7135239151106276  0.9243097917170998  0.03899218822342451  1.0000
  H   H21       1.0  0.280834433508062  0.3340824301702979  0.17391596488376843  1.0000
  H   H22       1.0  0.16053779103192775  0.10592962991381669  0.8261362495354942  1.0000
  H   H23       1.0  0.7190553910525068  0.27329389892074823  0.9781816527710699  1.0000
  H   H24       1.0  0.24113537325420953  0.33857792445432017  0.4825427525965082  1.0000
  H   H25       1.0  0.29486290888011996  0.7409871532356577  0.021921378629023987  1.0000
  H   H26       1.0  0.22067068605840487  0.34675656361220314  0.319770135056025  1.0000
  H   H27       1.0  0.027363231832410347  0.8998494820479833  0.6803063658695903  1.0000
  H   H28       1.0  0.5365440198475683  0.005504698625592991  0.7707078296903658  1.0000
  H   H29       1.0  0.6159060655670457  0.9737321953592825  0.8678745490222678  1.0000
  H   H30       1.0  0.4998432734231388  0.02563093943302853  0.8842005251461555  1.0000
  H   H31       1.0  0.8561107384928874  0.7578538535845709  0.5175621507409713  1.0000
  H   H32       1.0  0.2336557362076944  0.7654159676041915  0.22888267913393173  1.0000
  H   H33       1.0  0.1047313244610492  0.7477841660163662  0.13190009022691362  1.0000
  H   H34       1.0  0.140265081917633  0.6152307022324807  0.11544183691269433  1.0000
  H   H35       1.0  0.7164984561163052  0.5737938501656501  0.4083613133039775  1.0000
  H   H36       1.0  0.569891207758161  0.5253362250792648  0.3218332371228953  1.0000
  H   H37       1.0  0.6214510345179889  0.6373861835258267  0.4660429091269831  1.0000
  H   H38       1.0  0.16543625189652997  0.3083755651878164  0.5918303594293092  1.0000
  H   H39       1.0  0.2038100807755399  0.24847553774247896  0.6784975476692096  1.0000
  H   H40       1.0  0.17125950636648213  0.15547292274862204  0.5341423586674381  1.0000
  N   N1        1.0  0.5293092312325245  0.3687983246769448  0.05725705370706167  1.0000
  N   N2        1.0  0.572380648616253  0.829128826960421  0.1515965529570095  1.0000
  N   N3        1.0  0.6774916640158183  0.4208438511290424  0.8485136577759674  1.0000
  N   N4        1.0  0.3998889650672197  0.5932657521494492  0.20328717550361822  1.0000
  N   N5        1.0  0.3897461006184883  0.1964168640470588  0.7964628530900268  1.0000
  N   N6        1.0  0.7259624037047275  0.5470555049743383  0.9108264641904567  1.0000
  N   N7        1.0  0.6366907638549788  0.815427295746467  0.08979386192627446  1.0000
  N   N8        1.0  0.3113852407213358  0.4718976825435704  0.9424696526901427  1.0000
  N   N9        1.0  0.3545753023897331  0.4669001134894444  0.14350437568335642  1.0000
  N   N10       1.0  0.32338177760152576  0.21067146780373475  0.8563254574561722  1.0000
  N   N11       1.0  0.6383887653956322  0.6452626824739626  0.1939466203158487  1.0000
  N   N12       1.0  0.45134077881657214  0.4448522110963536  0.806085949323808  1.0000
  N   N13       1.0  0.5944751882793683  0.35669351626719226  0.9976916626558461  1.0000
  N   N14       1.0  0.3588512174992998  0.5967727619601177  0.0021290326063123153  1.0000
  N   N15       1.0  0.7003232586330482  0.6300300206874283  0.13087293840175807  1.0000
  N   N16       1.0  0.4994408393077591  0.5699744142760395  0.8691690819137887  1.0000
  O   O1        1.0  0.4517287796100502  0.8462580746305333  0.7619561047997432  1.0000
  O   O2        1.0  0.08329221433937313  0.6891845783777129  0.23763911691276005  1.0000
  O   O3        1.0  0.6693036864577095  0.7043035834441084  0.3768589108944124  1.0000
  O   O4        1.0  0.327303741650205  0.29275712021080835  0.623148059877522  1.0000
  Zn  Zn1       1.0  0.3755656768997043  0.3754626673567856  0.9998593018581018  1.0000
  Zn  Zn2       1.0  0.6453375261041502  0.6453288015528996  0.00010236085015679123  1.0000
  Zn  Zn3       1.0  0.527858193953776  0.3460689337696861  0.8526649568355605  1.0000
  Zn  Zn4       1.0  0.49322165777707017  0.6753274112338445  0.147223522816624  1.0000
