data_image0
_chemical_formula_structural       C8H16K2O24Yb2
_chemical_formula_sum              "C8 H16 K2 O24 Yb2"
_cell_length_a       8.746169395935643
_cell_length_b       9.148899825472462
_cell_length_c       9.148961725460389
_cell_angle_alpha    76.79189574063068
_cell_angle_beta     61.44481650312625
_cell_angle_gamma    61.44469231398821

_space_group_name_H-M_alt    "P 1"
_space_group_IT_number       1

loop_
  _space_group_symop_operation_xyz
  'x, y, z'

loop_
  _atom_site_type_symbol
  _atom_site_label
  _atom_site_symmetry_multiplicity
  _atom_site_fract_x
  _atom_site_fract_y
  _atom_site_fract_z
  _atom_site_occupancy
  C   C1        1.0  0.3944138418931615  0.5188245596963128  0.528541598817462  1.0000
  C   C2        1.0  0.4132430252756406  0.028530612921507298  0.48117979593765625  1.0000
  C   C3        1.0  0.9417751776553231  0.9811810287301626  0.9714630468416628  1.0000
  C   C4        1.0  0.4229546327332867  0.4714666003542406  0.018819268843124293  1.0000
  C   C5        1.0  0.6055733752710638  0.48118337501666275  0.4714693502605839  1.0000
  C   C6        1.0  0.5867606883947826  0.9714648777400541  0.5188174647758572  1.0000
  C   C7        1.0  0.05822458473485166  0.018815706382433503  0.0285317251438286  1.0000
  C   C8        1.0  0.577040673140509  0.528536356753108  0.9811804807039619  1.0000
  H   H1        1.0  0.8326457259056639  0.6738907532419703  0.17101797060336568  1.0000
  H   H2        1.0  0.006535357385658444  0.6710230667684698  0.32610527775382536  1.0000
  H   H3        1.0  0.17755891237783297  0.8261051315929394  0.3289821014772656  1.0000
  H   H4        1.0  0.5036650174715828  0.8289819693514245  0.1738906705708771  1.0000
  H   H5        1.0  0.16735487671040528  0.3261097150253462  0.8289805345086732  1.0000
  H   H6        1.0  0.9934640008116412  0.3289786459002713  0.6738944717515167  1.0000
  H   H7        1.0  0.8224433547724245  0.17389533664957924  0.6710176479996618  1.0000
  H   H8        1.0  0.49633381956703465  0.17101849892826246  0.8261090789460539  1.0000
  H   H9        1.0  0.7598931706839024  0.591137199478446  0.0984367383921025  1.0000
  H   H10       1.0  0.8510298838198053  0.5984341456172474  0.40886472739704516  1.0000
  H   H11       1.0  0.9494643968010479  0.9088635532138554  0.4015676235560406  1.0000
  H   H12       1.0  0.3583270524618455  0.9015695363404249  0.09113675516466908  1.0000
  H   H13       1.0  0.24010847425945767  0.4088632687640584  0.901564255476373  1.0000
  H   H14       1.0  0.14896895321881232  0.40156632266243963  0.5911350221198859  1.0000
  H   H15       1.0  0.05053859360929639  0.09113442623818462  0.5984308815391728  1.0000
  H   H16       1.0  0.6416740713079461  0.09843342071739163  0.9088605055459735  1.0000
  K   K1        1.0  0.8750040318971203  0.7500005521853128  0.7499918212347436  1.0000
  K   K2        1.0  0.12499209829985594  0.24999493853815838  0.25000917272010525  1.0000
  O   O1        1.0  0.26955419680425735  0.6246660391091654  0.6427683539262359  1.0000
  O   O2        1.0  0.3942311162999629  0.14275064980305532  0.3753408941163059  1.0000
  O   O3        1.0  0.03698772764911922  0.8753332850825403  0.8572420782204161  1.0000
  O   O4        1.0  0.41231615141617767  0.3572518623026113  0.12466598274797037  1.0000
  O   O5        1.0  0.7304286649066892  0.37534314000516394  0.3572500615028744  1.0000
  O   O6        1.0  0.6057788354116411  0.8572386187768758  0.6246638328577915  1.0000
  O   O7        1.0  0.9630215858933436  0.12465971677624312  0.14274647174872968  1.0000
  O   O8        1.0  0.5876822814047742  0.6427598055404999  0.875332522339768  1.0000
  O   O9        1.0  0.36515122980253506  0.4387459867366061  0.4553227227904273  1.0000
  O   O10       1.0  0.30388025161987253  0.9553229357592985  0.561263050616823  1.0000
  O   O11       1.0  0.7592105434846984  0.06126303671529602  0.04467546995849148  1.0000
  O   O12       1.0  0.32047303552992196  0.5446692115115541  0.9387312312059705  1.0000
  O   O13       1.0  0.6348559298673706  0.5612644366307507  0.5446732934324529  1.0000
  O   O14       1.0  0.6961032163655007  0.04468251022517931  0.438744165363083  1.0000
  O   O15       1.0  0.2407988870483846  0.9387299650814143  0.955324279467966  1.0000
  O   O16       1.0  0.6795250464084502  0.45532005729159414  0.0612560745264048  1.0000
  O   O17       1.0  0.7563134024034638  0.6976947015675846  0.10851333216636047  1.0000
  O   O18       1.0  0.954006745229172  0.6085156942193776  0.3023031212705263  1.0000
  O   O19       1.0  0.06252270140973316  0.8023020125693352  0.3914839942316276  1.0000
  O   O20       1.0  0.36482178409207944  0.8914818239184256  0.19769832897735984  1.0000
  O   O21       1.0  0.24369311915682346  0.30230452226116006  0.8914814397292756  1.0000
  O   O22       1.0  0.045992091804478684  0.3914860184617623  0.6976953838565976  1.0000
  O   O23       1.0  0.9374800869140999  0.19769596685786442  0.6085194884031393  1.0000
  O   O24       1.0  0.6351753884222617  0.1085161555831462  0.802302664954304  1.0000
  Yb  Yb1       1.0  0.37500787316251605  0.7499960149799778  0.7499988969035912  1.0000
  Yb  Yb2       1.0  0.6250011531677727  0.2500044531757837  0.2500033412631026  1.0000
