data_image0
_chemical_formula_structural       C58H38N18Zn4
_chemical_formula_sum              "C58 H38 N18 Zn4"
_cell_length_a       14.915440943369738
_cell_length_b       15.016986275110655
_cell_length_c       14.951260121829202
_cell_angle_alpha    105.19723073957263
_cell_angle_beta     111.69745493245439
_cell_angle_gamma    111.60912381761113

_space_group_name_H-M_alt    "P 1"
_space_group_IT_number       1

loop_
  _space_group_symop_operation_xyz
  'x, y, z'

loop_
  _atom_site_type_symbol
  _atom_site_label
  _atom_site_symmetry_multiplicity
  _atom_site_fract_x
  _atom_site_fract_y
  _atom_site_fract_z
  _atom_site_occupancy
  C   C1        1.0  0.16723691234970764  0.799644091307087  0.6926786168980995  1.0000
  C   C2        1.0  0.3865367146611973  0.5963990759037686  0.6887266116210142  1.0000
  C   C3        1.0  0.8078539939397017  0.61192902241379  0.6131076182325899  1.0000
  C   C4        1.0  0.5543784674275186  0.20548965994636603  0.19483253885128698  1.0000
  C   C5        1.0  0.0078326562995628  0.3671857627999558  0.8139286342548288  1.0000
  C   C6        1.0  0.009877775699827401  0.3925118881386709  0.2074119264484935  1.0000
  C   C7        1.0  0.005816111950537099  0.8116608978221367  0.3738411096129611  1.0000
  C   C8        1.0  0.006100528542226901  0.19809343083209538  0.41854148668408436  1.0000
  C   C9        1.0  0.901473724500704  0.9233887820108679  0.34975046324128567  1.0000
  C   C10       1.0  0.9323929567340487  0.9872334907502633  0.287532696753779  1.0000
  C   C11       1.0  0.9754926286484175  0.031182906888773034  0.45786391154538086  1.0000
  C   C12       1.0  0.03815163476083679  0.9754584654995286  0.31350518052435933  1.0000
  C   C13       1.0  0.006763963909634202  0.09710746014450682  0.3959993040693064  1.0000
  C   C14       1.0  0.006718763601838898  0.91028479988897  0.37613207277436084  1.0000
  C   C15       1.0  0.11211289560866787  0.08404850618984482  0.4214452749418243  1.0000
  C   C16       1.0  0.08143065364717468  0.020558584201154396  0.4838992410161893  1.0000
  C   C17       1.0  0.6938792877175287  0.6011949249232486  0.7028494503575116  1.0000
  C   C18       1.0  0.41748273192491314  0.10953849043683304  0.9949925208244179  1.0000
  C   C19       1.0  0.741478391410645  0.6452016578515438  0.6486936810686642  1.0000
  C   C20       1.0  0.4488299148581234  0.11588944069828959  0.09789940871112894  1.0000
  C   C21       1.0  0.7026930147799886  0.7102692189143126  0.6146163704913048  1.0000
  C   C22       1.0  0.3752977978142765  0.02262569712474521  0.09668021248582899  1.0000
  C   C23       1.0  0.8381592707964173  0.5367707349313804  0.6300315571604783  1.0000
  C   C24       1.0  0.6244871811314638  0.30575080373276364  0.20553848792317111  1.0000
  C   C25       1.0  0.6158596313995586  0.7187900115894623  0.6229789210008291  1.0000
  C   C26       1.0  0.28729296124746634  0.9287387544162942  0.000868311503737089  1.0000
  C   C27       1.0  0.559256934598558  0.6633335787266574  0.6665998959343468  1.0000
  C   C28       1.0  0.26461820435065414  0.9195709174860696  0.8970110276161734  1.0000
  C   C29       1.0  0.6070113013886241  0.6098018449026769  0.711268216183619  1.0000
  C   C30       1.0  0.3293373178465727  0.016104472814085107  0.8992061293001398  1.0000
  C   C31       1.0  0.5902541454754838  0.5343365022326552  0.7620910620807705  1.0000
  C   C32       1.0  0.35744381352895255  0.06244092895036599  0.8276745407541171  1.0000
  C   C33       1.0  0.6884924084355786  0.5245093084153254  0.7525591209816297  1.0000
  C   C34       1.0  0.45749146138752633  0.16812736743255385  0.9361403166673198  1.0000
  C   C35       1.0  0.10608136929193528  0.4397244213826782  0.10842088459173747  1.0000
  C   C36       1.0  0.10505228473279969  0.4356901704396279  0.014290872956692591  1.0000
  C   C37       1.0  0.0167678884565063  0.36619893449972113  0.11009956058497754  1.0000
  C   C38       1.0  0.0146486564086814  0.35716506725806607  0.9100672962733609  1.0000
  C   C39       1.0  0.9293820790110205  0.2795988019055216  0.005681098197705198  1.0000
  C   C40       1.0  0.9286008749435549  0.2753465155561015  0.9106974271329944  1.0000
  C   C41       1.0  0.21098457271043708  0.547668181879864  0.07282042569153191  1.0000
  C   C42       1.0  0.2085762234480056  0.5544271815241117  0.18077270117323957  1.0000
  C   C43       1.0  0.09797496804640819  0.43051090537327513  0.8051908952222959  1.0000
  C   C44       1.0  0.10066671712622369  0.4664335057278848  0.31449921554737864  1.0000
  C   C45       1.0  0.91253929815457  0.7106794720851825  0.3359895957878436  1.0000
  C   C46       1.0  0.9118487864951701  0.2097885984607757  0.3937988024815907  1.0000
  C   C47       1.0  0.9121496489401505  0.3288301283041476  0.71333748484043  1.0000
  C   C48       1.0  0.9137801532432801  0.3767544090472086  0.2141375719734953  1.0000
  C   C49       1.0  0.09810254046325179  0.7989694823458111  0.4209129760228265  1.0000
  C   C50       1.0  0.09832048146459019  0.30401083278567154  0.49035916575888183  1.0000
  C   C51       1.0  0.8348369519839235  0.6279789902330818  0.5354728296560294  1.0000
  C   C52       1.0  0.6173208511385794  0.20999936150400345  0.294762020765191  1.0000
  C   C53       1.0  0.16815322309278705  0.7133378401132975  0.7921842323730031  1.0000
  C   C54       1.0  0.38560678600882875  0.6820954932724208  0.5894204787571766  1.0000
  C   C55       1.0  0.19651543786551426  0.8164133264813317  0.7991063573605501  1.0000
  C   C56       1.0  0.4531488175915894  0.6519421344158971  0.6530003894093142  1.0000
  C   C57       1.0  0.19751174092057505  0.6290420963180168  0.04463604640369567  1.0000
  C   C58       1.0  0.3112572868183108  0.5758141803790624  0.2686021700627208  1.0000
  H   H1        1.0  0.1724645258916695  0.8560487273921003  0.6591067792161027  1.0000
  H   H2        1.0  0.4047004177443581  0.5584983345050318  0.7401859750515313  1.0000
  H   H3        1.0  0.8167535488938141  0.8585337586360143  0.3208106876218509  1.0000
  H   H4        1.0  0.8730833868258968  0.9742875995801941  0.20840093494793172  1.0000
  H   H5        1.0  0.19665754386947035  0.14840615300797572  0.44935787471719374  1.0000
  H   H6        1.0  0.14085677655462797  0.0320119737064175  0.5622377566769359  1.0000
  H   H7        1.0  0.7374044065546169  0.750911394358198  0.5744455031455401  1.0000
  H   H8        1.0  0.38990700575961057  0.022187748534342737  0.1736914685664459  1.0000
  H   H9        1.0  0.5865658080034776  0.7652114458196165  0.5884822724314418  1.0000
  H   H10       1.0  0.23787678661256714  0.8586285230649795  0.006947572177026093  1.0000
  H   H11       1.0  0.5079087289376004  0.4582828070866825  0.7132036779407541  1.0000
  H   H12       1.0  0.2930020864682347  0.07314860800626377  0.7735688671502955  1.0000
  H   H13       1.0  0.6084022235731011  0.5705272170879354  0.8455410948839841  1.0000
  H   H14       1.0  0.38418547753484933  0.020949225713550856  0.7801735191392537  1.0000
  H   H15       1.0  0.6623796123816276  0.4427443443581253  0.6980482210885339  1.0000
  H   H16       1.0  0.45195700660625693  0.2407492483081342  0.9452552633845811  1.0000
  H   H17       1.0  0.7643799493474928  0.5548072282165465  0.8303193926401632  1.0000
  H   H18       1.0  0.5421666543236653  0.1874809029186579  0.9514775582612811  1.0000
  H   H19       1.0  0.8575593232102106  0.21511120632199265  0.9983761502810821  1.0000
  H   H20       1.0  0.8566870214395619  0.20713246545665934  0.8332332544793812  1.0000
  H   H21       1.0  0.8338552114641614  0.501667667241712  0.684271864335443  1.0000
  H   H22       1.0  0.6100838859357437  0.33822634740412383  0.1482288513014183  1.0000
  H   H23       1.0  0.2866475581003057  0.5494353011086517  0.07633900175612501  1.0000
  H   H24       1.0  0.18694876040967753  0.6139214100623036  0.210930091965686  1.0000
  H   H25       1.0  0.18824309962879232  0.4751452432307702  0.8629841004781581  1.0000
  H   H26       1.0  0.1907559725934789  0.4993764346704311  0.3488749101858417  1.0000
  H   H27       1.0  0.8232998386750267  0.6836475670573136  0.29419665382350507  1.0000
  H   H28       1.0  0.8224263196335  0.14920218995531087  0.3405115478075231  1.0000
  H   H29       1.0  0.8233644254807472  0.27844623856538675  0.6844816853864089  1.0000
  H   H30       1.0  0.8250203998820493  0.32712432543608116  0.15087141622133518  1.0000
  H   H31       1.0  0.18785958005087613  0.8569747921163613  0.4615191683301419  1.0000
  H   H32       1.0  0.18820921876733362  0.3337951177279308  0.5293984816581343  1.0000
  H   H33       1.0  0.8261275281825035  0.6794823264849797  0.4978811642899644  1.0000
  H   H34       1.0  0.596958057530962  0.14945758948444177  0.3225782284379192  1.0000
  H   H35       1.0  0.1758839492974857  0.6883572833802989  0.8552144226989782  1.0000
  H   H36       1.0  0.4015565849130666  0.7243291210537209  0.5431427591550957  1.0000
  H   H37       1.0  0.9504984923102169  0.05623205649220591  0.5157104278199184  1.0000
  H   H38       1.0  0.06318858421093408  0.9518190039907637  0.25527590507574166  1.0000
  N   N1        1.0  0.12736059993525117  0.6956268467505001  0.6291350926248428  1.0000
  N   N2        1.0  0.28795520734050933  0.5937653286546052  0.6494704127630229  1.0000
  N   N3        1.0  0.8767673811744955  0.5089920136557923  0.5653413469814835  1.0000
  N   N4        1.0  0.720347425672948  0.3644999784310699  0.3032169261382905  1.0000
  N   N5        1.0  0.05913589365945879  0.4295935432605802  0.7082636822786696  1.0000
  N   N6        1.0  0.06082392238539569  0.4937427672149255  0.3778358294038141  1.0000
  N   N7        1.0  0.9464993129867166  0.643473897880142  0.3588370929919692  1.0000
  N   N8        1.0  0.9463209762489482  0.31448986282808283  0.448738357902343  1.0000
  N   N9        1.0  0.9433587559804265  0.36653751290165093  0.6509111014402079  1.0000
  N   N10       1.0  0.9463492549867211  0.43912719455908444  0.3163022849817239  1.0000
  N   N11       1.0  0.062325318452081994  0.6986068375872637  0.4117000555285203  1.0000
  N   N12       1.0  0.06091905982025029  0.37249200348608724  0.5081008103686812  1.0000
  N   N13       1.0  0.8748304278445431  0.5651883162760357  0.5073759830945123  1.0000
  N   N14       1.0  0.7163624660863801  0.30496241599942653  0.359028512360389  1.0000
  N   N15       1.0  0.12836830554752507  0.6427090004303296  0.6903811814338496  1.0000
  N   N16       1.0  0.28773845131077275  0.6474358706979473  0.5877918656906829  1.0000
  N   N17       1.0  0.18402147993840856  0.6944200246234474  0.023973839859778023  1.0000
  N   N18       1.0  0.3949957888378321  0.5948320646653258  0.33928131919920906  1.0000
  Zn  Zn1       1.0  0.14172685933136356  0.6410398106812565  0.5019334631873846  1.0000
  Zn  Zn2       1.0  0.13880035611335725  0.5111134728784208  0.6428184138051307  1.0000
  Zn  Zn3       1.0  0.8623998206351755  0.36646893489209015  0.5031408632135238  1.0000
  Zn  Zn4       1.0  0.866741882494864  0.5046734573398055  0.3663347783607803  1.0000
