data_image0
_chemical_formula_structural       C24H20N8O24Yb4
_chemical_formula_sum              "C24 H20 N8 O24 Yb4"
_cell_length_a       5.9865870143329545
_cell_length_b       11.755884031544854
_cell_length_c       12.335200978666958
_cell_angle_alpha    77.16171408980226
_cell_angle_beta     75.9452286403718
_cell_angle_gamma    75.24550904161818

_space_group_name_H-M_alt    "P 1"
_space_group_IT_number       1

loop_
  _space_group_symop_operation_xyz
  'x, y, z'

loop_
  _atom_site_type_symbol
  _atom_site_label
  _atom_site_symmetry_multiplicity
  _atom_site_fract_x
  _atom_site_fract_y
  _atom_site_fract_z
  _atom_site_occupancy
  C   C1        1.0  0.033008790000934624  0.31910238899352084  0.4058638797505055  1.0000
  C   C2        1.0  0.7582993724123386  0.18088642563445487  0.0941193940763085  1.0000
  C   C3        1.0  0.9669901883851045  0.6808946692758651  0.5941364840703329  1.0000
  C   C4        1.0  0.24170319722092182  0.8191167849948612  0.9058809973848412  1.0000
  C   C5        1.0  0.03166369671852467  0.28666763309837506  0.5230068971820359  1.0000
  C   C6        1.0  0.8416316605922985  0.21326528365458586  0.9769669378027501  1.0000
  C   C7        1.0  0.9683367608478411  0.7133314964867736  0.476991778187184  1.0000
  C   C8        1.0  0.15837223361382527  0.786737770214806  0.023034301761057904  1.0000
  C   C9        1.0  0.2843173251790888  0.41135302242676625  0.5026909165214876  1.0000
  C   C10       1.0  0.19885378171174048  0.08871259618051389  0.9972446812120311  1.0000
  C   C11       1.0  0.7156847071416054  0.5886446628252102  0.4973060545022819  1.0000
  C   C12       1.0  0.8011501124359482  0.9112879777035375  0.0027556982707821007  1.0000
  C   C13       1.0  0.2782595115703261  0.4476918331303921  0.387732208580438  1.0000
  C   C14       1.0  0.11409862594066313  0.0523088233920177  0.11218213040795179  1.0000
  C   C15       1.0  0.7217401585604367  0.5523055386360056  0.6122664588805122  1.0000
  C   C16       1.0  0.885900698376169  0.947690871611215  0.8878182453139374  1.0000
  C   C17       1.0  0.9136511983644555  0.264163744876754  0.3422744464626106  1.0000
  C   C18       1.0  0.5203422550393029  0.23582737617932983  0.1577427885941063  1.0000
  C   C19       1.0  0.08634601400234486  0.7358368290529926  0.6577259333293455  1.0000
  C   C20       1.0  0.4796590266785331  0.7641716918070428  0.8422609796929947  1.0000
  C   C21       1.0  0.8777119450914985  0.20588071143951225  0.6032667532367313  1.0000
  C   C22       1.0  0.6870013152997463  0.2940634209453989  0.8967982511544578  1.0000
  C   C23       1.0  0.12229488504083015  0.7941139619485754  0.39673699493190645  1.0000
  C   C24       1.0  0.3130009085195836  0.7059421129207595  0.10320384856763101  1.0000
  H   H1        1.0  0.17743428406726025  0.060553832687446615  0.42753860739899346  1.0000
  H   H2        1.0  0.6654437037618592  0.43954689477233444  0.0725106976870151  1.0000
  H   H3        1.0  0.8225641571815178  0.9394451401606145  0.5724609162274561  1.0000
  H   H4        1.0  0.334558174068249  0.5604535223746367  0.9274905300530278  1.0000
  H   H5        1.0  0.2646607353780795  0.13999719544067796  0.7882968359658236  1.0000
  H   H6        1.0  0.19296845110798716  0.35995784900626393  0.7117489474869743  1.0000
  H   H7        1.0  0.7353351524158641  0.8600035352489853  0.2117026957234671  1.0000
  H   H8        1.0  0.8070324480216162  0.640042881649137  0.2882505839704663  1.0000
  H   H9        1.0  0.503020244011289  0.1555997866941041  0.694357297092381  1.0000
  H   H10       1.0  0.352979604159721  0.34438511520243503  0.8056651093596942  1.0000
  H   H11       1.0  0.49697942617790164  0.8444000650576274  0.3056422304495641  1.0000
  H   H12       1.0  0.6470212949698891  0.6556156154529659  0.1943344220977394  1.0000
  H   H13       1.0  0.38929910662749023  0.4455622160417433  0.5434787436528836  1.0000
  H   H14       1.0  0.3789369766414483  0.05465607480688555  0.9564256888987686  1.0000
  H   H15       1.0  0.6107012552479888  0.5544354692216588  0.4565182274481785  1.0000
  H   H16       1.0  0.6210655928749418  0.9453421758517565  0.0435729824003843  1.0000
  H   H17       1.0  0.3728538055109641  0.5141383027756632  0.3331035572315031  1.0000
  H   H18       1.0  0.22052607275041003  0.9859164057083659  0.1668172379717134  1.0000
  H   H19       1.0  0.627144098542125  0.4858601046657468  0.666894266119563  1.0000
  H   H20       1.0  0.779471485430321  0.014081844984538282  0.8331814335593037  1.0000
  N   N1        1.0  0.15744503087445602  0.33481775198554686  0.5705263608037612  1.0000
  N   N2        1.0  0.06314052619148933  0.1651845609843718  0.9294261847179044  1.0000
  N   N3        1.0  0.8425605336600198  0.6651803419017455  0.4294731585207714  1.0000
  N   N4        1.0  0.9368592396885874  0.8348167350891135  0.0705750470921984  1.0000
  N   N5        1.0  0.14800788381919008  0.40260522223184847  0.34075734279357317  1.0000
  N   N6        1.0  0.8917425723577211  0.09739833553746989  0.1591873469935408  1.0000
  N   N7        1.0  0.8519876580439604  0.5973928717239756  0.6592421769946669  1.0000
  N   N8        1.0  0.10826053435436503  0.9026004805278233  0.8408130245809957  1.0000
  O   O1        1.0  0.8537906154041722  0.16594818978997944  0.39039730672263323  1.0000
  O   O2        1.0  0.41005157187916574  0.33391946841797443  0.1095881891604691  1.0000
  O   O3        1.0  0.1462052723897713  0.8340525408996912  0.6096022249666575  1.0000
  O   O4        1.0  0.5899489814365071  0.6660835854742687  0.8904130505579032  1.0000
  O   O5        1.0  0.8867842681674675  0.3189971131013678  0.244390470110595  1.0000
  O   O6        1.0  0.4505715454856868  0.18101903188743756  0.25565171903417655  1.0000
  O   O7        1.0  0.11320547504128362  0.681004183040649  0.7556107621632222  1.0000
  O   O8        1.0  0.5494332316716214  0.8189797841664442  0.7443486524630812  1.0000
  O   O9        1.0  0.6604243796385062  0.24946694572204817  0.6195166323544896  1.0000
  O   O10       1.0  0.5294457435854341  0.25055006264731355  0.880566032321788  1.0000
  O   O11       1.0  0.33957891839691007  0.750532279001405  0.3804862876753816  1.0000
  O   O12       1.0  0.4705581506206826  0.7494529912220858  0.1194352072420202  1.0000
  O   O13       1.0  0.9773966910372636  0.1045364658494279  0.6511372031069413  1.0000
  O   O14       1.0  0.7332258385062362  0.39542074253479575  0.8489686511062404  1.0000
  O   O15       1.0  0.022609410634466337  0.8954597134591821  0.34886315641198  1.0000
  O   O16       1.0  0.2667640961427153  0.604585922236055  0.1510368497848873  1.0000
  O   O17       1.0  0.3211742354440475  0.033544927461647826  0.4579090278843554  1.0000
  O   O18       1.0  0.8125871348181164  0.4665200317710045  0.0421096890700454  1.0000
  O   O19       1.0  0.6788234184275626  0.9664547675530102  0.5420913479148197  1.0000
  O   O20       1.0  0.18741341843912807  0.5334805421358908  0.9578906905673321  1.0000
  O   O21       1.0  0.3952608618261381  0.09832626898112544  0.7347508305531393  1.0000
  O   O22       1.0  0.22839946151520968  0.4016572602448107  0.7652364728286258  1.0000
  O   O23       1.0  0.6047358133449665  0.9016737395419556  0.2652478489634333  1.0000
  O   O24       1.0  0.7716017834867516  0.5983436271590961  0.23476221044887066  1.0000
  Yb  Yb1       1.0  0.32389523275308135  0.9718570565071755  0.6385547411925359  1.0000
  Yb  Yb2       1.0  0.9343582546126902  0.5281906877262798  0.8614478797769394  1.0000
  Yb  Yb3       1.0  0.6761048789409189  0.028141916329474267  0.3614447823566281  1.0000
  Yb  Yb4       1.0  0.06564009106207183  0.47181180077071627  0.13855165974334233  1.0000
