data_image0
_chemical_formula_structural       C64H44N8O20Yb4
_chemical_formula_sum              "C64 H44 N8 O20 Yb4"
_cell_length_a       8.233342396450976
_cell_length_b       13.923315963497025
_cell_length_c       13.920947735868937
_cell_angle_alpha    84.99789054727157
_cell_angle_beta     72.81622141310709
_cell_angle_gamma    72.79733583682645

_space_group_name_H-M_alt    "P 1"
_space_group_IT_number       1

loop_
  _space_group_symop_operation_xyz
  'x, y, z'

loop_
  _atom_site_type_symbol
  _atom_site_label
  _atom_site_symmetry_multiplicity
  _atom_site_fract_x
  _atom_site_fract_y
  _atom_site_fract_z
  _atom_site_occupancy
  C   C1        1.0  0.8450003773538054  0.15261456999558473  0.7200952242446588  1.0000
  C   C2        1.0  0.4358117247149167  0.7204429169914164  0.8473076706033138  1.0000
  C   C3        1.0  0.7167441165500461  0.8472617378677539  0.2797381357159025  1.0000
  C   C4        1.0  0.003347368994184304  0.2796268857838839  0.15270144670816413  1.0000
  C   C5        1.0  0.7098715190849844  0.11087648647242788  0.7696244221727324  1.0000
  C   C6        1.0  0.5213680239119327  0.7699809114131212  0.8891124559427295  1.0000
  C   C7        1.0  0.5893794472262073  0.8891679840592771  0.23021299512288343  1.0000
  C   C8        1.0  0.18021955474337406  0.23015454954207115  0.11084225238516857  1.0000
  C   C9        1.0  0.7445062592495192  0.021689227185902396  0.8263761742726528  1.0000
  C   C10       1.0  0.4297880860899709  0.8267148035524271  0.9783338299227534  1.0000
  C   C11       1.0  0.5917047083911412  0.9784331763871845  0.17360822443329474  1.0000
  C   C12       1.0  0.23463335051226147  0.17368481664788502  0.021446858514536888  1.0000
  C   C13       1.0  0.9148406216269008  0.973052926866863  0.829972351500565  1.0000
  C   C14       1.0  0.2559101439490162  0.8302616226665621  0.02694747994696199  1.0000
  C   C15       1.0  0.7170321413317636  0.026994383161138596  0.1700884591870419  1.0000
  C   C16       1.0  0.1129113952779761  0.17015369781942977  0.9728041656200401  1.0000
  C   C17       1.0  0.05721298362981043  0.0130503877820445  0.7786351497317267  1.0000
  C   C18       1.0  0.16493470489110945  0.778903358464909  0.9868862248382368  1.0000
  C   C19       1.0  0.8481517804422011  0.9868192990203184  0.22138686352460715  1.0000
  C   C20       1.0  0.9304800995689676  0.22139411427934155  0.012973361113296295  1.0000
  C   C21       1.0  0.23435144766606458  0.9641926208210094  0.7795121461525694  1.0000
  C   C22       1.0  0.9869330868359895  0.7796746275309515  0.03564010228812009  1.0000
  C   C23       1.0  0.97735424458245  0.035593413027605394  0.22066168765957875  1.0000
  C   C24       1.0  0.8019872017614633  0.2205592864615085  0.964234952541467  1.0000
  C   C25       1.0  0.3698696834058523  0.0059395293881153  0.7320700197934256  1.0000
  C   C26       1.0  0.8989911708222064  0.7322542760982883  0.9937246632512707  1.0000
  C   C27       1.0  0.10724677921163564  0.9936728635501452  0.2680575173364231  1.0000
  C   C28       1.0  0.6247409752217833  0.2680290786670696  0.006094784130176797  1.0000
  C   C29       1.0  0.3333439692086415  0.09955506376519452  0.6823944942472904  1.0000
  C   C30       1.0  0.9853748797268764  0.6826483735155265  0.9000666658387285  1.0000
  C   C31       1.0  0.11470190406534186  0.8999385712032791  0.3175063129735846  1.0000
  C   C32       1.0  0.5678574761866173  0.3177093452274347  0.09971110150505068  1.0000
  C   C33       1.0  0.16354244870833415  0.14782546764622137  0.677631650725473  1.0000
  C   C34       1.0  0.1599022149293178  0.677986819199944  0.8519204357441691  1.0000
  C   C35       1.0  0.9883395276276302  0.8517674581662149  0.3221179029181868  1.0000
  C   C36       1.0  0.6895690068864512  0.3222949073814902  0.14793490530994544  1.0000
  C   C37       1.0  0.021848753009542955  0.1059008918036994  0.7246645393347604  1.0000
  C   C38       1.0  0.25443968745521056  0.7250029055237873  0.8940091474340118  1.0000
  C   C39       1.0  0.851560646507217  0.893892978636536  0.275207186678898  1.0000
  C   C40       1.0  0.8731765987622422  0.2752395471309654  0.10589921710519687  1.0000
  C   C41       1.0  0.8090157805519953  0.2472794963998339  0.6598416167385676  1.0000
  C   C42       1.0  0.531651741426124  0.660089058655252  0.7526496310116922  1.0000
  C   C43       1.0  0.7154450545642421  0.7525745368192884  0.3399943765724983  1.0000
  C   C44       1.0  0.9442711436091356  0.33984904413712513  0.2474496661919828  1.0000
  C   C45       1.0  0.4302451780778755  0.24468495499272794  0.4014254702100428  1.0000
  C   C46       1.0  0.16812432788830026  0.40144553938842614  0.755293366867235  1.0000
  C   C47       1.0  0.0764871085820431  0.7550859957592309  0.5985513784481851  1.0000
  C   C48       1.0  0.32425788563887176  0.5986333227403192  0.24479802498876063  1.0000
  C   C49       1.0  0.3459690017969024  0.1748091249973953  0.3893472577585867  1.0000
  C   C50       1.0  0.26424651097224244  0.3893735963648907  0.8253118929780993  1.0000
  C   C51       1.0  0.9102528156120185  0.8249042252526806  0.6105283201241674  1.0000
  C   C52       1.0  0.47810915671913523  0.6108517218574222  0.17479164749846623  1.0000
  C   C53       1.0  0.5459157248734813  0.049974596421201084  0.44571476278451155  1.0000
  C   C54       1.0  0.007777789305052428  0.44585349114412043  0.9499820076008657  1.0000
  C   C55       1.0  0.04157217413462188  0.949800149549908  0.5544506224838484  1.0000
  C   C56       1.0  0.4025784607382549  0.5544757487642187  0.050089204124340383  1.0000
  C   C57       1.0  0.6323768688486736  0.1190248443775843  0.45782688980832364  1.0000
  C   C58       1.0  0.909422211355192  0.45793772976198704  0.8808081032224846  1.0000
  C   C59       1.0  0.20923491068034397  0.8807872247352433  0.54234273292937  1.0000
  C   C60       1.0  0.24736288953676694  0.5422016811512902  0.11929162653981958  1.0000
  C   C61       1.0  0.3664568385245344  0.3552524449726491  0.3792213092901874  1.0000
  C   C62       1.0  0.2543734111377489  0.3792128053951274  0.6447365125821772  1.0000
  C   C63       1.0  0.10106719190729067  0.6445639591664187  0.620859520029782  1.0000
  C   C64       1.0  0.27793724443151296  0.6207611973521592  0.3553614902956496  1.0000
  H   H1        1.0  0.5002117166697602  0.4705662412887718  0.6527427087303078  1.0000
  H   H2        1.0  0.8470112906835822  0.6527342256452754  0.5294796950644594  1.0000
  H   H3        1.0  0.6231850522811441  0.529395909556257  0.3473855506836542  1.0000
  H   H4        1.0  0.029222451738192493  0.3473310001278945  0.47059835800452265  1.0000
  H   H5        1.0  0.5752918580280236  0.14766080457012984  0.7654977280603743  1.0000
  H   H6        1.0  0.6600486532810524  0.7659049053955227  0.8524117355187069  1.0000
  H   H7        1.0  0.48734972287172684  0.8525112577875973  0.23426938861552313  1.0000
  H   H8        1.0  0.27808576721224654  0.234111239142848  0.14765236982322694  1.0000
  H   H9        1.0  0.6354753079324383  0.9907802556946093  0.8662013793596582  1.0000
  H   H10       1.0  0.4988507186816662  0.8665508854695999  0.009382427528628097  1.0000
  H   H11       1.0  0.4915192355238601  0.0095058312335752  0.13382348583093057  1.0000
  H   H12       1.0  0.37458491441334746  0.13386250001404676  0.990448786719909  1.0000
  H   H13       1.0  0.9424620715747668  0.9033997666603283  0.8723041253727712  1.0000
  H   H14       1.0  0.18588274180229555  0.8725465434508591  0.09664157829968187  1.0000
  H   H15       1.0  0.7173482254028016  0.0967084313872846  0.12787577673225303  1.0000
  H   H16       1.0  0.1548706142742234  0.1279206770400449  0.9030812132382661  1.0000
  H   H17       1.0  0.2615471887588542  0.8926866304624426  0.8184034874436532  1.0000
  H   H18       1.0  0.9207444284546185  0.8184041391132054  0.10724997041091196  1.0000
  H   H19       1.0  0.9718871624500097  0.107198811804615  0.18194076454987135  1.0000
  H   H20       1.0  0.8461415207997831  0.18172964312847734  0.8926854838455537  1.0000
  H   H21       1.0  0.5057076956881803  0.9671786354941785  0.7326138963273504  1.0000
  H   H22       1.0  0.7626410237172511  0.7327038547170587  0.032430699215140586  1.0000
  H   H23       1.0  0.2049081879500747  0.0323671541180772  0.26761900964839197  1.0000
  H   H24       1.0  0.5275274580104746  0.267482966671885  0.9674171948689857  1.0000
  H   H25       1.0  0.4397468201185717  0.1338076054622377  0.6475469762168797  1.0000
  H   H26       1.0  0.9139492634307727  0.647781361425693  0.865694468341246  1.0000
  H   H27       1.0  0.2205366346497542  0.8655643689805359  0.3523504894967075  1.0000
  H   H28       1.0  0.4272170545908622  0.3526077884418227  0.13404754201011568  1.0000
  H   H29       1.0  0.13647334709895625  0.2194532343212643  0.6385230282116366  1.0000
  H   H30       1.0  0.22612880116051315  0.6388701064198583  0.780303746984863  1.0000
  H   H31       1.0  0.9937985672630488  0.7801169766752167  0.3611576410415792  1.0000
  H   H32       1.0  0.645070587803829  0.3613576418114945  0.21959942364362203  1.0000
  H   H33       1.0  0.22928205998743328  0.19902155560343718  0.36141695105837346  1.0000
  H   H34       1.0  0.4088509597544388  0.361373349411238  0.8012340267057209  1.0000
  H   H35       1.0  0.789884654398172  0.8006697811740294  0.63837999260037  1.0000
  H   H36       1.0  0.5706742344799381  0.6388183371234247  0.19888423537314984  1.0000
  H   H37       1.0  0.5940344509183932  0.9710881055828436  0.4651057198998102  1.0000
  H   H38       1.0  0.9401556754698461  0.4653113978790485  0.028857029149101286  1.0000
  H   H39       1.0  0.0300747996022253  0.028714959479316297  0.5351878103465137  1.0000
  H   H40       1.0  0.43315119600671187  0.5351167373771657  0.9712022104045199  1.0000
  H   H41       1.0  0.7465087150537854  0.09627272948883098  0.4876490581863207  1.0000
  H   H42       1.0  0.7654897702807589  0.48777458955319725  0.9034703969362777  1.0000
  H   H43       1.0  0.33038517724254035  0.9035704249507859  0.5126065588157258  1.0000
  H   H44       1.0  0.1559864093577588  0.5122751041919001  0.09667266114727367  1.0000
  N   N1        1.0  0.5729146813434767  0.2164448540963377  0.4371423720069598  1.0000
  N   N2        1.0  0.9897762185313894  0.4371896899057148  0.7834121283066363  1.0000
  N   N3        1.0  0.22656832481818154  0.7833533369269714  0.5629392134743012  1.0000
  N   N4        1.0  0.20978546913949023  0.5628462873929719  0.21670499795750683  1.0000
  N   N5        1.0  0.4018217002046216  0.0772789124818019  0.41254516597243895  1.0000
  N   N6        1.0  0.1850217352881672  0.41262826214183684  0.9228226315640807  1.0000
  N   N7        1.0  0.8916745978765165  0.9224529631788131  0.5874398161606533  1.0000
  N   N8        1.0  0.5194464273397797  0.5877026091809582  0.07725568446947048  1.0000
  O   O1        1.0  0.7842660989309143  0.23924087818592446  0.5751480078647899  1.0000
  O   O2        1.0  0.6407454276362115  0.5752907882069634  0.7607184364625963  1.0000
  O   O3        1.0  0.5982954674835453  0.7605997994633498  0.42478039510640275  1.0000
  O   O4        1.0  0.9766560676876994  0.4246261135727136  0.23947940052995872  1.0000
  O   O5        1.0  0.8090270893425637  0.327788612507483  0.6965269820011525  1.0000
  O   O6        1.0  0.4949513107521922  0.6967595252515082  0.6721302290882035  1.0000
  O   O7        1.0  0.8326879046528787  0.6720847278170795  0.30328881101378596  1.0000
  O   O8        1.0  0.8636963820796952  0.303144227283866  0.32791031066149395  1.0000
  O   O9        1.0  0.4577412129892977  0.4099161003610375  0.392162662859377  1.0000
  O   O10       1.0  0.15028956753188566  0.3922666974887149  0.5899652370640422  1.0000
  O   O11       1.0  0.259954235273007  0.5899144339967534  0.6079776858591825  1.0000
  O   O12       1.0  0.13209236974432767  0.6078029421548197  0.4101266721633506  1.0000
  O   O13       1.0  0.23005821938523507  0.38535135600976383  0.3484078929467031  1.0000
  O   O14       1.0  0.4215906535138529  0.3483040395820609  0.6147545377536614  1.0000
  O   O15       1.0  0.9639468175840307  0.6145133554898904  0.6517177279648079  1.0000
  O   O16       1.0  0.38445845086230424  0.6514977302204913  0.3853426821064188  1.0000
  O   O17       1.0  0.5960338306161435  0.48395519128224856  0.5980580255856223  1.0000
  O   O18       1.0  0.8058847627975111  0.5980338063309815  0.5160947258538753  1.0000
  O   O19       1.0  0.6778458377008436  0.5159516649809246  0.4020387471964923  1.0000
  O   O20       1.0  0.9199658072106589  0.4020063960822355  0.484028740367904  1.0000
  Yb  Yb1       1.0  0.6673608676040603  0.3643244533513936  0.4781472406504291  1.0000
  Yb  Yb2       1.0  0.8545460632444635  0.4781147351993835  0.6356467436884753  1.0000
  Yb  Yb3       1.0  0.5098224444029713  0.6355474879421622  0.5219490350545539  1.0000
  Yb  Yb4       1.0  0.9680346791105308  0.5218686564990164  0.36447946508088325  1.0000
